<?xml version="1.0" encoding="UTF-8"?>

<!-- generated on 2024-12-24 20:26:46.413359 by osmWebWizard.py v1_21_0+0000-d7b3b481c43
<configuration>
    <net-file value="C:\Users\Varun\AppData\Roaming\Microsoft\Windows\Start Menu\Programs\SUMO\2024-12-24-20-26-40\osm.net.xml.gz"/>
    <output-trip-file value="C:\Users\Varun\AppData\Roaming\Microsoft\Windows\Start Menu\Programs\SUMO\2024-12-24-20-26-40\osm.passenger.trips.xml"/>
    <route-file value="C:\Users\Varun\AppData\Roaming\Microsoft\Windows\Start Menu\Programs\SUMO\2024-12-24-20-26-40\osm.passenger.rou.xml"/>
    <prefix value="veh"/>
    <trip-attributes value="departLane=&quot;best&quot;"/>
    <fringe-start-attributes value="departSpeed=&quot;max&quot;"/>
    <vehicle-class value="passenger"/>
    <lanes value="True"/>
    <fringe-factor value="5"/>
    <allow-fringe.min-length value="1000.0"/>
    <via-edge-types value="highway.motorway,highway.motorway_link,highway.trunk_link,highway.primary_link,highway.secondary_link,highway.tertiary_link"/>
    <min-distance value="300.0"/>
    <min-distance.fringe value="10.0"/>
    <remove-loops value="True"/>
    <validate value="True"/>
    <insertion-density value="12.0"/>
</configuration>
-->

<!-- generated on 2024-12-24 20:26:46 by Eclipse SUMO duarouter Version 1.21.0
<duarouterConfiguration xmlns:xsi="http://www.w3.org/2001/XMLSchema-instance" xsi:noNamespaceSchemaLocation="http://sumo.dlr.de/xsd/duarouterConfiguration.xsd">

    <input>
        <net-file value="C:\Users\Varun\AppData\Roaming\Microsoft\Windows\Start Menu\Programs\SUMO\2024-12-24-20-26-40\osm.net.xml.gz"/>
        <route-files value="C:\Users\Varun\AppData\Roaming\Microsoft\Windows\Start Menu\Programs\SUMO\2024-12-24-20-26-40\osm.passenger.trips.xml"/>
    </input>

    <output>
        <output-file value="C:\Users\Varun\AppData\Roaming\Microsoft\Windows\Start Menu\Programs\SUMO\2024-12-24-20-26-40\osm.passenger.trips.xml.tmp"/>
        <alternatives-output value="NUL"/>
        <write-trips value="true"/>
    </output>

    <processing>
        <remove-loops value="true"/>
    </processing>

    <time>
        <begin value="0.0"/>
        <end value="3600.0"/>
    </time>

    <report>
        <no-warnings value="true"/>
        <ignore-errors value="true"/>
        <no-step-log value="true"/>
    </report>

</duarouterConfiguration>
-->

<routes xmlns:xsi="http://www.w3.org/2001/XMLSchema-instance" xsi:noNamespaceSchemaLocation="http://sumo.dlr.de/xsd/routes_file.xsd">
   
    <vType id="veh_passenger" vClass="passenger" accel="2.6" decel="4.5" sigma="0.5" maxSpeed="33.33" length="4.5" 
       lcStrategic="1.0" lcCooperative="0.7" lcSpeedGain="1.0" lcKeepRight="0.2" />	
    <trip id="veh0" type="veh_passenger" depart="0.00" departLane="best" from="280676773#2" to="280472263#0"/>
    <trip id="veh1" type="veh_passenger" depart="7.20" departLane="best" from="-280680801#0" to="280680655#1"/>
    <trip id="veh2" type="veh_passenger" depart="14.40" departLane="best" from="280680775#0" to="280680638#5"/>
    <trip id="veh3" type="veh_passenger" depart="21.60" departLane="best" from="-376558271#3" to="-280676563#9"/>
    <trip id="veh4" type="veh_passenger" depart="28.80" departLane="best" from="-874502248#5" to="-280472285#0"/>
    <trip id="veh5" type="veh_passenger" depart="36.00" departLane="best" from="-280680648#2" to="280472262#2"/>
    <trip id="veh6" type="veh_passenger" depart="43.21" departLane="best" from="-280472263#1" to="-280680643#0"/>
    <trip id="veh7" type="veh_passenger" depart="50.41" departLane="best" from="280676806#4" to="280676558#11"/>
    <trip id="veh8" type="veh_passenger" depart="57.61" departLane="best" from="-280680648#4" to="280676634#2"/>
    <trip id="veh9" type="veh_passenger" depart="64.81" departLane="best" from="280680886#0" to="280680647#5"/>
    <trip id="veh10" type="veh_passenger" depart="72.01" departLane="best" from="-280680898#0" to="-280676716#1"/>
    <trip id="veh11" type="veh_passenger" depart="79.21" departLane="best" from="873382993" to="-280680896#0"/>
    <trip id="veh12" type="veh_passenger" depart="86.41" departLane="best" from="-280676587" to="-280676604#1"/>
    <trip id="veh13" type="veh_passenger" depart="93.61" departLane="best" from="-280680886#1" to="280680726"/>
    <trip id="veh14" type="veh_passenger" depart="100.81" departLane="best" from="280676558#3" to="-874502242"/>
    <trip id="veh15" type="veh_passenger" depart="108.01" departLane="best" from="-376558271#6" to="280676558#7"/>
    <trip id="veh16" type="veh_passenger" depart="115.21" departLane="best" from="-280680916#3" to="280676661#9"/>
    <trip id="veh17" type="veh_passenger" depart="122.42" departLane="best" departSpeed="max" from="376558262" to="280676602"/>
    <trip id="veh18" type="veh_passenger" depart="129.62" departLane="best" from="280680671#0" to="241720911#19"/>
    <trip id="veh19" type="veh_passenger" depart="136.82" departLane="best" from="-280680671#0" to="280680822#0"/>
    <trip id="veh20" type="veh_passenger" depart="144.02" departLane="best" from="-280676563#14" to="-280680690"/>
    <trip id="veh21" type="veh_passenger" depart="151.22" departLane="best" from="280676621#1" to="-280680803#0"/>
    <trip id="veh22" type="veh_passenger" depart="158.42" departLane="best" from="280676757#3" to="-301350260"/>
    <trip id="veh23" type="veh_passenger" depart="165.62" departLane="best" from="-315946003#2" to="280680647#1"/>
    <trip id="veh24" type="veh_passenger" depart="172.82" departLane="best" from="-280680787" to="135955892#9"/>
    <trip id="veh25" type="veh_passenger" depart="180.02" departLane="best" from="-280676795#0" to="280680720"/>
    <trip id="veh26" type="veh_passenger" depart="187.22" departLane="best" from="-280676757#1" to="-376558271#7"/>
    <trip id="veh27" type="veh_passenger" depart="194.42" departLane="best" from="-874993006#0" to="280676728#1"/>
    <trip id="veh28" type="veh_passenger" depart="201.63" departLane="best" from="-280676563#8" to="280680643#1"/>
    <trip id="veh29" type="veh_passenger" depart="208.83" departLane="best" from="-280680671#1" to="-280472285#2"/>
    <trip id="veh30" type="veh_passenger" depart="216.03" departLane="best" from="-280680869#0" to="280680787"/>
    <trip id="veh31" type="veh_passenger" depart="223.23" departLane="best" from="-280680647#3" to="449394146"/>
    <trip id="veh32" type="veh_passenger" depart="230.43" departLane="best" departSpeed="max" from="376558267#0" to="-280680869#0"/>
    <trip id="veh33" type="veh_passenger" depart="237.63" departLane="best" from="280680637#3" to="-873347097#1"/>
    <trip id="veh34" type="veh_passenger" depart="244.83" departLane="best" from="385697442#15" to="135955892#14"/>
    <trip id="veh35" type="veh_passenger" depart="252.03" departLane="best" from="280676660#2" to="280680886#0"/>
    <trip id="veh36" type="veh_passenger" depart="259.23" departLane="best" from="874998286" to="280472263#2"/>
    <trip id="veh37" type="veh_passenger" depart="266.43" departLane="best" from="-280676579#1" to="-280475181#1"/>
    <trip id="veh38" type="veh_passenger" depart="273.63" departLane="best" from="280680868#0" to="-874507703"/>
    <trip id="veh39" type="veh_passenger" depart="280.84" departLane="best" from="-280676558#12" to="-604213899#0"/>
    <trip id="veh40" type="veh_passenger" depart="288.04" departLane="best" from="874502240" to="309136914#3"/>
    <trip id="veh41" type="veh_passenger" depart="295.24" departLane="best" from="-241720911#19" to="280680692"/>
    <trip id="veh42" type="veh_passenger" depart="302.44" departLane="best" from="280680646#8" to="280676552#2"/>
    <trip id="veh43" type="veh_passenger" depart="309.64" departLane="best" from="-280680784" to="280676734#0"/>
    <trip id="veh44" type="veh_passenger" depart="316.84" departLane="best" from="-280676660#11" to="-991891011"/>
    <trip id="veh45" type="veh_passenger" depart="324.04" departLane="best" departSpeed="max" from="376558267#0" to="-280680775#2"/>
    <trip id="veh46" type="veh_passenger" depart="331.24" departLane="best" from="-280472285#0" to="-280676806#4"/>
    <trip id="veh47" type="veh_passenger" depart="338.44" departLane="best" from="385697442#14" to="376558267#2"/>
    <trip id="veh48" type="veh_passenger" depart="345.64" departLane="best" from="280676664#1" to="280676708#1"/>
    <trip id="veh49" type="veh_passenger" depart="352.84" departLane="best" from="-280680813#0" to="280676552#5"/>
    <trip id="veh50" type="veh_passenger" depart="360.05" departLane="best" from="280680837#1" to="280475181#1"/>
    <trip id="veh51" type="veh_passenger" depart="367.25" departLane="best" from="-1092962257" to="280680877#4"/>
    <trip id="veh52" type="veh_passenger" depart="374.45" departLane="best" from="241720911#7" to="385697442#4"/>
    <trip id="veh53" type="veh_passenger" depart="381.65" departLane="best" departSpeed="max" from="376558267#0" to="280680901#0"/>
    <trip id="veh54" type="veh_passenger" depart="388.85" departLane="best" from="-280680857#1" to="-280676552#8"/>
    <trip id="veh55" type="veh_passenger" depart="396.05" departLane="best" from="-280676563#8" to="166692081#1"/>
    <trip id="veh56" type="veh_passenger" depart="403.25" departLane="best" from="-280676558#6" to="280680795#1"/>
    <trip id="veh57" type="veh_passenger" depart="410.45" departLane="best" from="241720911#0" to="280676558#5"/>
    <trip id="veh58" type="veh_passenger" depart="417.65" departLane="best" from="-280680780" to="881934737#7"/>
    <trip id="veh59" type="veh_passenger" depart="424.85" departLane="best" from="-874599898" to="280680647#4"/>
    <trip id="veh60" type="veh_passenger" depart="432.05" departLane="best" from="280676558#5" to="280680726"/>
    <trip id="veh61" type="veh_passenger" depart="439.26" departLane="best" from="-280676660#8" to="280680656"/>
    <trip id="veh62" type="veh_passenger" depart="446.46" departLane="best" from="-280680896#1" to="280676634#2"/>
    <trip id="veh63" type="veh_passenger" depart="453.66" departLane="best" from="-280680682#0" to="-280680648#4"/>
    <trip id="veh64" type="veh_passenger" depart="460.86" departLane="best" from="-280676558#7" to="280676694#1"/>
    <trip id="veh65" type="veh_passenger" depart="468.06" departLane="best" from="-280680671#1" to="385697442#11"/>
    <trip id="veh66" type="veh_passenger" depart="475.26" departLane="best" departSpeed="max" from="376558262" to="-280676558#7"/>
    <trip id="veh67" type="veh_passenger" depart="482.46" departLane="best" from="-280680647#6" to="-280676661#2"/>
    <trip id="veh68" type="veh_passenger" depart="489.66" departLane="best" from="280680886#1" to="-280680638#0"/>
    <trip id="veh69" type="veh_passenger" depart="496.86" departLane="best" from="-280676604#1" to="-874993006#4"/>
    <trip id="veh70" type="veh_passenger" depart="504.06" departLane="best" from="-874599898" to="135955892#3"/>
    <trip id="veh71" type="veh_passenger" depart="511.26" departLane="best" from="280680752" to="-280680638#2"/>
    <trip id="veh72" type="veh_passenger" depart="518.47" departLane="best" departSpeed="max" from="376558262" to="-280680741"/>
    <trip id="veh73" type="veh_passenger" depart="525.67" departLane="best" from="-280680638#0" to="135955892#12"/>
    <trip id="veh74" type="veh_passenger" depart="532.87" departLane="best" from="-280680743" to="385697442#19"/>
    <trip id="veh75" type="veh_passenger" depart="540.07" departLane="best" from="280676563#14" to="-280475188#3"/>
    <trip id="veh77" type="veh_passenger" depart="554.47" departLane="best" from="-309136914#3" to="-280676773#1"/>
    <trip id="veh78" type="veh_passenger" depart="561.67" departLane="best" from="-241720911#21" to="280680647#5"/>
    <trip id="veh79" type="veh_passenger" depart="568.87" departLane="best" from="-873545067" to="-280676552#8"/>
    <trip id="veh80" type="veh_passenger" depart="576.07" departLane="best" from="-376558271#7" to="874987212"/>
    <trip id="veh81" type="veh_passenger" depart="583.27" departLane="best" from="-280680780" to="280680826#1"/>
    <trip id="veh82" type="veh_passenger" depart="590.47" departLane="best" from="135955892#3" to="-874507703"/>
    <trip id="veh83" type="veh_passenger" depart="597.68" departLane="best" from="873382993" to="874993006#5"/>
    <trip id="veh84" type="veh_passenger" depart="604.88" departLane="best" from="-280676563#7" to="280680682#1"/>
    <trip id="veh85" type="veh_passenger" depart="612.08" departLane="best" from="-280676716#0" to="-280680832"/>
    <trip id="veh86" type="veh_passenger" depart="619.28" departLane="best" from="280472285#2" to="280680927#2"/>
    <trip id="veh87" type="veh_passenger" depart="626.48" departLane="best" from="280676728#0" to="873382995"/>
    <trip id="veh88" type="veh_passenger" depart="633.68" departLane="best" from="-280676563#14" to="-280680637#5"/>
    <trip id="veh89" type="veh_passenger" depart="640.88" departLane="best" from="-280680694" to="280676660#7"/>
    <trip id="veh90" type="veh_passenger" depart="648.08" departLane="best" from="-376558271#2" to="-280680739#0"/>
    <trip id="veh91" type="veh_passenger" depart="655.28" departLane="best" from="280676661#10" to="280676664#0"/>
    <trip id="veh92" type="veh_passenger" depart="662.48" departLane="best" from="-874502248#3" to="-280676621#1"/>
    <trip id="veh93" type="veh_passenger" depart="669.68" departLane="best" from="280475189#2" to="385697442#6"/>
    <trip id="veh94" type="veh_passenger" depart="676.89" departLane="best" from="-280680646#5" to="280680671#1"/>
    <trip id="veh95" type="veh_passenger" depart="684.09" departLane="best" from="-280680709" to="-873347097#1"/>
    <trip id="veh96" type="veh_passenger" depart="691.29" departLane="best" from="-280676558#9" to="135955892#14"/>
    <trip id="veh97" type="veh_passenger" depart="698.49" departLane="best" from="-309136914#3" to="-280676728#0"/>
    <trip id="veh98" type="veh_passenger" depart="705.69" departLane="best" from="280676661#7" to="-280676660#4"/>
    <trip id="veh99" type="veh_passenger" depart="712.89" departLane="best" from="-280676634#2" to="280676558#8"/>
    <trip id="veh100" type="veh_passenger" depart="720.09" departLane="best" from="-280680795#3" to="280676661#1"/>
    <trip id="veh101" type="veh_passenger" depart="727.29" departLane="best" from="280680720" to="-280680646#3"/>
    <trip id="veh102" type="veh_passenger" depart="734.49" departLane="best" from="280676757#1" to="385697442#7"/>
    <trip id="veh103" type="veh_passenger" depart="741.69" departLane="best" from="241720911#5" to="385697442#11"/>
    <trip id="veh104" type="veh_passenger" depart="748.89" departLane="best" from="309136914#0" to="-280676587"/>
    <trip id="veh105" type="veh_passenger" depart="756.10" departLane="best" from="-874599898" to="-280680801#1"/>
    <trip id="veh107" type="veh_passenger" depart="770.50" departLane="best" from="280676773#0" to="-280680775#1"/>
    <trip id="veh108" type="veh_passenger" depart="777.70" departLane="best" from="-280676563#10" to="376558270#1"/>
    <trip id="veh109" type="veh_passenger" depart="784.90" departLane="best" from="280676661#17" to="280676558#12"/>
    <trip id="veh110" type="veh_passenger" depart="792.10" departLane="best" from="280680917#3" to="-280676621#0"/>
    <trip id="veh111" type="veh_passenger" depart="799.30" departLane="best" from="280676689" to="-280676661#13"/>
    <trip id="veh112" type="veh_passenger" depart="806.50" departLane="best" from="-280680865#0" to="280680886#0"/>
    <trip id="veh113" type="veh_passenger" depart="813.70" departLane="best" from="280680869#1" to="309136914#3"/>
    <trip id="veh114" type="veh_passenger" depart="820.90" departLane="best" from="385697442#0" to="280680647#1"/>
    <trip id="veh115" type="veh_passenger" depart="828.10" departLane="best" from="280680743" to="-280676627"/>
    <trip id="veh116" type="veh_passenger" depart="835.31" departLane="best" from="280680837#2" to="376558270#1"/>
    <trip id="veh117" type="veh_passenger" depart="842.51" departLane="best" from="-280676716#0" to="385697442#4"/>
    <trip id="veh118" type="veh_passenger" depart="849.71" departLane="best" departSpeed="max" from="376558262" to="-874502245"/>
    <trip id="veh119" type="veh_passenger" depart="856.91" departLane="best" from="280680894#0" to="376558270#1"/>
    <trip id="veh120" type="veh_passenger" depart="864.11" departLane="best" from="280472262#2" to="280680743"/>
    <trip id="veh121" type="veh_passenger" depart="871.31" departLane="best" from="-280680894#0" to="385697442#4"/>
    <trip id="veh122" type="veh_passenger" depart="878.51" departLane="best" from="-280680877#4" to="376558250#0"/>
    <trip id="veh123" type="veh_passenger" depart="885.71" departLane="best" from="280680865#0" to="-280676634#3"/>
    <trip id="veh124" type="veh_passenger" depart="892.91" departLane="best" departSpeed="max" from="376558267#0" to="309136914#1"/>
    <trip id="veh125" type="veh_passenger" depart="900.11" departLane="best" from="-280680655#0" to="280680884#1"/>
    <trip id="veh126" type="veh_passenger" depart="907.31" departLane="best" from="280680869#1" to="-280680671#0"/>
    <trip id="veh127" type="veh_passenger" depart="914.52" departLane="best" from="-280472262#1" to="-280680638#3"/>
    <trip id="veh128" type="veh_passenger" depart="921.72" departLane="best" from="-280680886#1" to="376558250#0"/>
    <trip id="veh129" type="veh_passenger" depart="928.92" departLane="best" from="874502237" to="280680803#1"/>
    <trip id="veh130" type="veh_passenger" depart="936.12" departLane="best" from="280676785#3" to="873382995"/>
    <trip id="veh131" type="veh_passenger" depart="943.32" departLane="best" from="-874502239#1" to="-280676806#4"/>
    <trip id="veh132" type="veh_passenger" depart="950.52" departLane="best" from="241720911#6" to="-280680780"/>
    <trip id="veh133" type="veh_passenger" depart="957.72" departLane="best" from="-280676634#3" to="-991891011"/>
    <trip id="veh134" type="veh_passenger" depart="964.92" departLane="best" from="280676661#8" to="280472285#0"/>
    <trip id="veh135" type="veh_passenger" depart="972.12" departLane="best" from="-869030128" to="280676594"/>
    <trip id="veh136" type="veh_passenger" depart="979.32" departLane="best" from="-280680756#1" to="280680648#6"/>
    <trip id="veh137" type="veh_passenger" depart="986.52" departLane="best" from="1125366769" to="385697442#2"/>
    <trip id="veh138" type="veh_passenger" depart="993.73" departLane="best" from="280676558#4" to="280680682#1"/>
    <trip id="veh139" type="veh_passenger" depart="1000.93" departLane="best" from="280680780" to="280680637#7"/>
    <trip id="veh140" type="veh_passenger" depart="1008.13" departLane="best" from="-280680927#4" to="-280676558#6"/>
    <trip id="veh141" type="veh_passenger" depart="1015.33" departLane="best" from="280680638#4" to="280680886#2"/>
    <trip id="veh142" type="veh_passenger" depart="1022.53" departLane="best" from="-280680868#1" to="280680923#0"/>
    <trip id="veh143" type="veh_passenger" depart="1029.73" departLane="best" from="280680733#0" to="-280680837#2"/>
    <trip id="veh144" type="veh_passenger" depart="1036.93" departLane="best" from="-280680865#1" to="-874502239#1"/>
    <trip id="veh145" type="veh_passenger" depart="1044.13" departLane="best" from="-874502234" to="280680646#3"/>
    <trip id="veh146" type="veh_passenger" depart="1051.33" departLane="best" from="280676661#13" to="-874502248#4"/>
    <trip id="veh147" type="veh_passenger" depart="1058.53" departLane="best" from="-1092962257" to="-280680815"/>
    <trip id="veh148" type="veh_passenger" depart="1065.73" departLane="best" from="-874993006#3" to="280676611"/>
    <trip id="veh149" type="veh_passenger" depart="1072.94" departLane="best" from="280680637#1" to="135955892#2"/>
    <trip id="veh150" type="veh_passenger" depart="1080.14" departLane="best" from="135955892#1" to="280680647#5"/>
    <trip id="veh152" type="veh_passenger" depart="1094.54" departLane="best" from="280680869#1" to="-280676785#3"/>
    <trip id="veh153" type="veh_passenger" depart="1101.74" departLane="best" from="-280676563#7" to="280472285#4"/>
    <trip id="veh154" type="veh_passenger" depart="1108.94" departLane="best" from="280676757#0" to="-280680894#3"/>
    <trip id="veh155" type="veh_passenger" depart="1116.14" departLane="best" from="-280680646#0" to="280472262#2"/>
    <trip id="veh156" type="veh_passenger" depart="1123.34" departLane="best" from="315946003#2" to="-280676558#9"/>
    <trip id="veh157" type="veh_passenger" depart="1130.54" departLane="best" from="280472262#2" to="-280680733#0"/>
    <trip id="veh158" type="veh_passenger" depart="1137.74" departLane="best" from="-280680795#3" to="280680808#0"/>
    <trip id="veh159" type="veh_passenger" depart="1144.94" departLane="best" from="-280676634#2" to="-874987215"/>
    <trip id="veh160" type="veh_passenger" depart="1152.15" departLane="best" from="280676723" to="873382993"/>
    <trip id="veh161" type="veh_passenger" depart="1159.35" departLane="best" from="280680743" to="280680923#0"/>
    <trip id="veh162" type="veh_passenger" depart="1166.55" departLane="best" from="135955892#3" to="280680865#2"/>
    <trip id="veh163" type="veh_passenger" depart="1173.75" departLane="best" from="280680641" to="-874987218"/>
    <trip id="veh164" type="veh_passenger" depart="1180.95" departLane="best" from="280676661#11" to="869030154"/>
    <trip id="veh165" type="veh_passenger" depart="1188.15" departLane="best" from="376558271#3" to="280676661#17"/>
    <trip id="veh166" type="veh_passenger" depart="1195.35" departLane="best" from="-280680726" to="280472262#2"/>
    <trip id="veh167" type="veh_passenger" depart="1202.55" departLane="best" from="280680917#0" to="280676558#3"/>
    <trip id="veh168" type="veh_passenger" depart="1209.75" departLane="best" from="385697442#0" to="280680761"/>
    <trip id="veh169" type="veh_passenger" depart="1216.95" departLane="best" from="-280680739#1" to="280676723"/>
    <trip id="veh170" type="veh_passenger" depart="1224.15" departLane="best" from="280680815" to="280472324#1"/>
    <trip id="veh171" type="veh_passenger" depart="1231.36" departLane="best" from="280676728#0" to="-280680799#1"/>
    <trip id="veh172" type="veh_passenger" depart="1238.56" departLane="best" from="-280676563#12" to="280680813#1"/>
    <trip id="veh173" type="veh_passenger" depart="1245.76" departLane="best" from="-280680795#3" to="-280680877#0"/>
    <trip id="veh174" type="veh_passenger" depart="1252.96" departLane="best" from="280680682#0" to="280676558#12"/>
    <trip id="veh175" type="veh_passenger" depart="1260.16" departLane="best" from="-874502248#0" to="-280680646#7"/>
    <trip id="veh176" type="veh_passenger" depart="1267.36" departLane="best" from="-874502248#4" to="385697442#11"/>
    <trip id="veh177" type="veh_passenger" depart="1274.56" departLane="best" departSpeed="max" from="376558262" to="-280680801#0"/>
    <trip id="veh178" type="veh_passenger" depart="1281.76" departLane="best" from="-376558271#8" to="-241720911#10"/>
    <trip id="veh179" type="veh_passenger" depart="1288.96" departLane="best" from="-280680917#0" to="280680784"/>
    <trip id="veh180" type="veh_passenger" depart="1296.16" departLane="best" from="-874502248#3" to="280680771"/>
    <trip id="veh181" type="veh_passenger" depart="1303.36" departLane="best" from="-991891012" to="280472265"/>
    <trip id="veh182" type="veh_passenger" depart="1310.57" departLane="best" from="-280680896#0" to="280680641"/>
    <trip id="veh183" type="veh_passenger" depart="1317.77" departLane="best" from="873347097#0" to="280676563#3"/>
    <trip id="veh184" type="veh_passenger" depart="1324.97" departLane="best" from="-280472263#1" to="280676734#2"/>
    <trip id="veh185" type="veh_passenger" depart="1332.17" departLane="best" from="280676661#8" to="135955892#14"/>
    <trip id="veh186" type="veh_passenger" depart="1339.37" departLane="best" from="-280475188#3" to="-376558271#7"/>
    <trip id="veh187" type="veh_passenger" depart="1346.57" departLane="best" from="-280680647#4" to="-280680884#1"/>
    <trip id="veh188" type="veh_passenger" depart="1353.77" departLane="best" from="280680810#0" to="-376558271#7"/>
    <trip id="veh189" type="veh_passenger" depart="1360.97" departLane="best" from="241720911#9" to="280680901#0"/>
    <trip id="veh190" type="veh_passenger" depart="1368.17" departLane="best" from="-280680752" to="280676563#4"/>
    <trip id="veh191" type="veh_passenger" depart="1375.37" departLane="best" from="241720911#7" to="280676552#5"/>
    <trip id="veh192" type="veh_passenger" depart="1382.57" departLane="best" from="991891011" to="-280680916#3"/>
    <trip id="veh193" type="veh_passenger" depart="1389.78" departLane="best" from="280676806#4" to="280680825#0"/>
    <trip id="veh194" type="veh_passenger" depart="1396.98" departLane="best" from="-280676811" to="280680784"/>
    <trip id="veh195" type="veh_passenger" depart="1404.18" departLane="best" from="-869030154" to="-280680646#0"/>
    <trip id="veh196" type="veh_passenger" depart="1411.38" departLane="best" from="-280676661#12" to="280680637#6"/>
    <trip id="veh197" type="veh_passenger" depart="1418.58" departLane="best" from="-280680655#1" to="280680801#1"/>
    <trip id="veh198" type="veh_passenger" depart="1425.78" departLane="best" from="-280680795#0" to="-280676660#3"/>
    <trip id="veh199" type="veh_passenger" depart="1432.98" departLane="best" from="280680898#1" to="874502235"/>
    <trip id="veh200" type="veh_passenger" depart="1440.18" departLane="best" from="280680710" to="-280676563#11"/>
    <trip id="veh201" type="veh_passenger" depart="1447.38" departLane="best" from="280680647#8" to="-280676689"/>
    <trip id="veh202" type="veh_passenger" depart="1454.58" departLane="best" from="-280676627" to="280680810#0"/>
    <trip id="veh203" type="veh_passenger" depart="1461.78" departLane="best" from="315946003#2" to="280676660#6"/>
    <trip id="veh204" type="veh_passenger" depart="1468.98" departLane="best" from="-874993006#1" to="-315946003#2"/>
    <trip id="veh205" type="veh_passenger" depart="1476.19" departLane="best" from="280472297#1" to="-280680898#1"/>
    <trip id="veh206" type="veh_passenger" depart="1483.39" departLane="best" from="315946003#2" to="280680894#0"/>
    <trip id="veh207" type="veh_passenger" depart="1490.59" departLane="best" from="-280676634#1" to="873382995"/>
    <trip id="veh208" type="veh_passenger" depart="1497.79" departLane="best" from="280676757#3" to="280680896#2"/>
    <trip id="veh209" type="veh_passenger" depart="1504.99" departLane="best" from="280680766" to="874502236"/>
    <trip id="veh210" type="veh_passenger" depart="1512.19" departLane="best" from="-280680795#0" to="-280680872#0"/>
    <trip id="veh211" type="veh_passenger" depart="1519.39" departLane="best" from="280676558#4" to="166692081#0"/>
    <trip id="veh212" type="veh_passenger" depart="1526.59" departLane="best" from="-280680793#0" to="280680927#1"/>
    <trip id="veh213" type="veh_passenger" depart="1533.79" departLane="best" from="280680917#0" to="-280676563#9"/>
    <trip id="veh214" type="veh_passenger" depart="1540.99" departLane="best" from="376558267#2" to="-280680733#0"/>
    <trip id="veh215" type="veh_passenger" depart="1548.19" departLane="best" from="-376558271#7" to="280472265"/>
    <trip id="veh216" type="veh_passenger" depart="1555.40" departLane="best" from="315946003#3" to="280676811"/>
    <trip id="veh217" type="veh_passenger" depart="1562.60" departLane="best" from="-280680647#4" to="-280680857#1"/>
    <trip id="veh218" type="veh_passenger" depart="1569.80" departLane="best" from="-280680898#0" to="376558270#1"/>
    <trip id="veh219" type="veh_passenger" depart="1577.00" departLane="best" from="-280676563#8" to="280680690"/>
    <trip id="veh220" type="veh_passenger" depart="1584.20" departLane="best" from="241720911#5" to="280680793#1"/>
    <trip id="veh221" type="veh_passenger" depart="1591.40" departLane="best" from="280680647#8" to="280676757#1"/>
    <trip id="veh222" type="veh_passenger" depart="1598.60" departLane="best" from="241720911#7" to="-280680837#3"/>
    <trip id="veh223" type="veh_passenger" depart="1605.80" departLane="best" from="-280676594" to="-280680648#5"/>
    <trip id="veh224" type="veh_passenger" depart="1613.00" departLane="best" from="280680648#0" to="-280680857#0"/>
    <trip id="veh225" type="veh_passenger" depart="1620.20" departLane="best" from="280676558#1" to="-874987218"/>
    <trip id="veh226" type="veh_passenger" depart="1627.40" departLane="best" from="280680793#0" to="-280680891"/>
    <trip id="veh227" type="veh_passenger" depart="1634.61" departLane="best" from="280680670" to="-280680795#1"/>
    <trip id="veh228" type="veh_passenger" depart="1641.81" departLane="best" from="-280680749#1" to="280676660#8"/>
    <trip id="veh229" type="veh_passenger" depart="1649.01" departLane="best" from="-280680638#3" to="280676660#7"/>
    <trip id="veh230" type="veh_passenger" depart="1656.21" departLane="best" from="280676558#2" to="280680795#3"/>
    <trip id="veh231" type="veh_passenger" depart="1663.41" departLane="best" from="-241720911#20" to="280680695#1"/>
    <trip id="veh232" type="veh_passenger" depart="1670.61" departLane="best" from="874502248#0" to="-280475163"/>
    <trip id="veh233" type="veh_passenger" depart="1677.81" departLane="best" from="-280680810#1" to="-280676621#0"/>
    <trip id="veh234" type="veh_passenger" depart="1685.01" departLane="best" from="-280680638#4" to="-280680671#0"/>
    <trip id="veh235" type="veh_passenger" depart="1692.21" departLane="best" from="280676558#12" to="-280680799#1"/>