<?xml version="1.0" encoding="UTF-8"?>

<!-- generated on 2024-12-24 20:32:01 by Eclipse SUMO netedit Version 1.21.0
-->

<additional xmlns:xsi="http://www.w3.org/2001/XMLSchema-instance" xsi:noNamespaceSchemaLocation="http://sumo.dlr.de/xsd/additional_file.xsd">
    <!-- Shapes -->
    <poly id="1122021880" type="building.yes" color="255,230,230" fill="1" layer="-1.00" shape="1291.923581,189.754114 1289.551498,185.151381 1296.481075,180.928364 1298.969250,185.518826 1291.923581,189.754114"/>
    <poly id="1164996896" type="amenity.theatre" color="237,199,199" fill="1" layer="-1.00" shape="1249.105077,80.946874 1233.396713,90.397324 1251.354071,120.598736 1268.204436,110.217659 1249.105077,80.946874"/>
    <poly id="1164996896#1" type="building.yes" color="255,230,230" fill="1" layer="-1.00" shape="1249.105077,80.946874 1233.396713,90.397324 1251.354071,120.598736 1268.204436,110.217659 1249.105077,80.946874"/>
    <poly id="588008291" type="amenity.police" color="237,199,199" fill="1" layer="-1.00" shape="1413.018153,89.899764"/>
    <poly id="588008291#1" type="building.service" color="255,230,230" fill="1" layer="-1.00" shape="1413.018153,89.899764"/>
    <poly id="588540062" type="leisure.pitch" color="207,245,201" fill="1" layer="-2.00" shape="1286.928749,443.089149 1221.442538,274.627580 1346.264538,294.080537 1373.573601,406.103761 1286.928749,443.089149"/>
    <poly id="602815837" type="building.yes" color="255,230,230" fill="1" layer="-1.00" shape="1355.417167,431.143994 1351.821717,436.959788 1360.870271,442.500796 1364.476287,436.684895 1355.417167,431.143994"/>
    <poly id="602815838" type="building.yes" color="255,230,230" fill="1" layer="-1.00" shape="1350.673505,438.311152 1347.111813,444.325859 1355.169177,449.035799 1358.730755,443.010024 1350.673505,438.311152"/>
    <poly id="602815839" type="building.yes" color="255,230,230" fill="1" layer="-1.00" shape="1341.156059,429.321139 1350.501109,434.925494 1354.220237,428.809528 1344.885750,423.205062 1341.156059,429.321139"/>
    <poly id="602815840" type="building.yes" color="255,230,230" fill="1" layer="-1.00" shape="1339.206791,441.064525 1343.271121,443.801041 1347.527766,437.557739 1343.463435,434.821221 1339.206791,441.064525"/>
    <poly id="602815842" type="building.yes" color="255,230,230" fill="1" layer="-1.00" shape="1334.168067,436.057661 1339.313030,429.893721 1328.735893,432.848223 1334.168067,436.057661"/>
    <poly id="602815843" type="building.yes" color="255,230,230" fill="1" layer="-1.00" shape="1320.183824,449.752200 1323.352300,455.763659 1330.824225,451.889272 1327.655636,445.866743 1320.183824,449.752200"/>
    <poly id="602815844" type="building.yes" color="255,230,230" fill="1" layer="-1.00" shape="1306.635678,454.541896 1310.545638,464.818725 1322.480302,460.322487 1318.559784,450.045765 1306.635678,454.541896"/>
    <poly id="602815845" type="building.yes" color="255,230,230" fill="1" layer="-1.00" shape="1310.040530,441.543586 1312.568712,447.960195 1322.597204,444.059337 1320.058461,437.642836 1310.040530,441.543586"/>
    <poly id="602815846" type="building.yes" color="255,230,230" fill="1" layer="-1.00" shape="1300.792788,444.318290 1304.718151,454.041455 1313.051627,450.722715 1309.115589,440.988588 1300.792788,444.318290"/>
    <poly id="602815847" type="building.yes" color="255,230,230" fill="1" layer="-1.00" shape="1233.790849,466.144904 1237.545531,473.666881 1248.046772,468.488025 1244.292095,460.966046 1233.790849,466.144904"/>
    <poly id="602815848" type="building.yes" color="255,230,230" fill="1" layer="-1.00" shape="1242.714476,472.882721 1246.868418,480.190232 1260.955713,472.372776 1256.380579,465.202465 1242.714476,472.882721"/>
    <poly id="602815849" type="building.yes" color="255,230,230" fill="1" layer="-1.00" shape="1223.528984,481.173660 1228.224642,491.818722 1241.624520,485.978844 1236.928868,475.333779 1223.528984,481.173660"/>
    <poly id="602815850" type="building.yes" color="255,230,230" fill="1" layer="-1.00" shape="1174.892794,512.452323 1188.994604,506.040558 1185.470831,498.372286 1171.369017,504.784053 1174.892794,512.452323"/>
    <poly id="602815851" type="building.yes" color="255,230,230" fill="1" layer="-1.00" shape="1169.747445,501.236287 1170.807976,503.660718 1184.134569,497.887976 1183.084604,495.463436 1169.747445,501.236287"/>
    <poly id="602815852" type="building.yes" color="255,230,230" fill="1" layer="-1.00" shape="1163.179764,502.643815 1181.018029,494.853851 1178.378070,488.870146 1160.529236,496.660221 1163.179764,502.643815"/>
    <poly id="602815853" type="building.yes" color="255,230,230" fill="1" layer="-1.00" shape="1150.921148,475.870524 1159.094021,493.763660 1162.133227,492.392689 1153.960357,474.499553 1150.921148,475.870524"/>
    <poly id="602815854" type="building.yes" color="255,230,230" fill="1" layer="-1.00" shape="1169.742932,486.524192 1171.176756,490.306375 1179.438313,487.187579 1177.993926,483.405504 1169.742932,486.524192"/>
    <poly id="602815855" type="building.yes" color="255,230,230" fill="1" layer="-1.00" shape="1159.301272,477.056754 1165.791559,493.672125 1170.663908,491.795080 1164.162946,475.168748 1159.301272,477.056754"/>
    <poly id="602815856" type="building.yes" color="255,230,230" fill="1" layer="-1.00" shape="1164.162946,475.168748 1168.923747,485.979175 1178.863209,481.647425 1174.113093,470.847956 1164.162946,475.168748"/>
    <poly id="602815857" type="building.yes" color="255,230,230" fill="1" layer="-1.00" shape="1137.229473,426.019890 1138.742853,432.380577 1151.601410,429.358049 1150.098599,422.997251 1137.229473,426.019890"/>
    <poly id="602815858" type="building.yes" color="255,230,230" fill="1" layer="-1.00" shape="1122.557140,432.437600 1125.483427,445.658169 1134.601844,443.659624 1131.675564,430.439055 1122.557140,432.437600"/>
    <poly id="602815859" type="building.yes" color="255,230,230" fill="1" layer="-1.00" shape="1113.415366,438.299853 1114.936854,449.520224 1123.999913,448.297153 1122.467980,437.087961 1113.415366,438.299853"/>
    <poly id="602815860" type="building.yes" color="255,230,230" fill="1" layer="-1.00" shape="1139.780853,446.904844 1150.687267,446.160839 1150.115405,437.875271 1139.208986,438.619276 1139.780853,446.904844"/>
    <poly id="602815861" type="building.yes" color="255,230,230" fill="1" layer="-1.00" shape="1139.721625,454.444186 1152.185349,454.104708 1152.011810,447.553016 1139.537632,447.903672 1139.721625,454.444186"/>
    <poly id="602815862" type="building.yes" color="255,230,230" fill="1" layer="-1.00" shape="1141.409820,466.459876 1155.995588,465.965570 1155.664427,456.437658 1141.068202,456.943142 1141.409820,466.459876"/>
    <poly id="602815863" type="building.yes" color="255,230,230" fill="1" layer="-1.00" shape="1133.491343,461.903563 1133.702753,471.089544 1139.649660,470.950430 1139.438253,461.764449 1133.491343,461.903563"/>
    <poly id="602815864" type="building.yes" color="255,230,230" fill="1" layer="-1.00" shape="1133.602611,452.249295 1133.808756,459.907659 1138.340047,459.783213 1138.134019,452.135919 1133.602611,452.249295"/>
    <poly id="602815865" type="building.yes" color="255,230,230" fill="1" layer="-1.00" shape="1125.551195,454.236784 1126.379835,461.811206 1132.110411,461.187248 1131.281774,453.612825 1125.551195,454.236784"/>
    <poly id="602815866" type="building.yes" color="255,230,230" fill="1" layer="-1.00" shape="1116.589899,464.259519 1118.018119,477.694874 1126.155175,476.835642 1124.726960,463.400287 1116.589899,464.259519"/>
    <poly id="602815867" type="building.yes" color="255,230,230" fill="1" layer="-1.00" shape="1132.251253,485.993852 1134.053458,489.639375 1140.392307,486.540485 1138.600781,482.905921 1132.251253,485.993852"/>
    <poly id="602815869" type="building.yes" color="255,230,230" fill="1" layer="-1.00" shape="1142.925139,483.204284 1146.057377,489.791739 1154.163690,485.966054 1151.031570,479.389667 1142.925139,483.204284"/>
    <poly id="602815871" type="building.yes" color="255,230,230" fill="1" layer="-1.00" shape="1110.909943,511.565518 1114.295950,519.190927 1127.768928,513.272715 1124.383041,505.658373 1110.909943,511.565518"/>
    <poly id="602815873" type="building.yes" color="255,230,230" fill="1" layer="-1.00" shape="1112.409165,499.228972 1115.805623,506.843203 1123.346729,503.532586 1119.960723,495.907176 1112.409165,499.228972"/>
    <poly id="602815875" type="building.yes" color="255,230,230" fill="1" layer="-1.00" shape="1102.328717,503.207978 1105.316498,511.147475 1110.178962,509.336936 1107.191183,501.397438 1102.328717,503.207978"/>
    <poly id="602815877" type="building.yes" color="255,230,230" fill="1" layer="-1.00" shape="1093.691125,504.703404 1098.084276,515.716889 1103.587490,513.545464 1099.194342,502.531978 1093.691125,504.703404"/>
    <poly id="602815878" type="building.yes" color="255,230,230" fill="1" layer="-1.00" shape="1083.615554,516.287520 1086.132556,522.637803 1096.644636,518.510403 1094.127637,512.160119 1083.615554,516.287520"/>
    <poly id="602815879" type="building.yes" color="255,230,230" fill="1" layer="-1.00" shape="1081.442451,511.516697 1083.028093,515.673685 1093.541668,511.690179 1091.956028,507.533190 1081.442451,511.516697"/>
    <poly id="602815880" type="building.yes" color="255,230,230" fill="1" layer="-1.00" shape="1076.303235,515.167747 1079.758715,524.397594 1083.284558,523.087987 1079.829080,513.858139 1076.303235,515.167747"/>
    <poly id="602815881" type="building.yes" color="255,230,230" fill="1" layer="-1.00" shape="1101.297779,527.085774 1106.743555,538.741485 1124.366810,530.599448 1118.921045,518.943732 1101.297779,527.085774"/>
    <poly id="602815882" type="building.yes" color="255,230,230" fill="1" layer="-1.00" shape="1033.500122,521.035827 1038.604053,521.115751 1038.964401,500.842676 1036.057726,500.728900 1033.500122,521.035827"/>
    <poly id="602815883" type="building.yes" color="255,230,230" fill="1" layer="-1.00" shape="1041.086335,500.676765 1042.945410,519.996942 1049.595063,519.363428 1047.735994,500.043251 1041.086335,500.676765"/>
    <poly id="602815884" type="building.yes" color="255,230,230" fill="1" layer="-1.00" shape="1037.477175,493.950357 1037.676379,497.878175 1048.289031,497.336416 1048.100508,493.419558 1037.477175,493.950357"/>
    <poly id="602815885" type="building.yes" color="255,230,230" fill="1" layer="-1.00" shape="1039.727196,485.757302 1040.222639,492.781674 1051.973371,491.951366 1051.477932,484.926994 1039.727196,485.757302"/>
    <poly id="602815886" type="building.yes" color="255,230,230" fill="1" layer="-1.00" shape="1052.895730,485.122628 1053.239703,492.823845 1067.971864,492.184041 1067.627897,484.482824 1052.895730,485.122628"/>
    <poly id="602815887" type="building.yes" color="255,230,230" fill="1" layer="-1.00" shape="1054.723990,477.011438 1055.025713,483.694645 1067.349906,483.146224 1067.048187,476.463017 1054.723990,477.011438"/>
    <poly id="602815888" type="building.yes" color="255,230,230" fill="1" layer="-1.00" shape="1045.668527,477.946642 1045.882532,483.302348 1053.317629,483.014936 1053.103626,477.659231 1045.668527,477.946642"/>
    <poly id="602815889" type="building.yes" color="255,230,230" fill="1" layer="-1.00" shape="1043.128470,465.297720 1043.265528,472.403298 1059.839453,472.087568 1059.702402,464.981991 1043.128470,465.297720"/>
    <poly id="602815890" type="building.yes" color="255,230,230" fill="1" layer="-1.00" shape="1044.639885,461.274678 1060.518755,461.176487 1060.469554,453.372583 1044.601127,453.459595 1044.639885,461.274678"/>
    <poly id="602815891" type="building.yes" color="255,230,230" fill="1" layer="-1.00" shape="1062.196137,452.779040 1066.959206,475.013758 1074.307275,473.465267 1069.554665,451.219370 1062.196137,452.779040"/>
    <poly id="602815892" type="building.yes" color="255,230,230" fill="1" layer="-1.00" shape="1089.302488,476.796916 1090.316835,482.919232 1095.906972,481.997825 1096.458581,485.268854 1090.857767,486.179302 1091.646830,490.953402 1108.132572,488.247487 1105.777677,474.091110 1089.302488,476.796916"/>
    <poly id="602815893" type="building.yes" color="255,230,230" fill="1" layer="-1.00" shape="1085.432319,459.158098 1088.100469,474.993880 1104.786258,472.219470 1102.118122,456.383687 1085.432319,459.158098"/>
    <poly id="602815894" type="building.yes" color="255,230,230" fill="1" layer="-1.00" shape="1074.701577,462.579282 1083.747525,460.725373 1080.967275,447.326173 1071.921321,449.180082 1074.701577,462.579282"/>
    <poly id="602815895" type="building.yes" color="255,230,230" fill="1" layer="-1.00" shape="1080.953870,443.994215 1083.296210,451.840770 1088.731342,450.234623 1086.389004,442.388068 1080.953870,443.994215"/>
    <poly id="602815896" type="building.yes" color="255,230,230" fill="1" layer="-1.00" shape="1087.792923,441.244367 1091.093966,449.844822 1096.250755,447.887319 1092.949715,439.286864 1087.792923,441.244367"/>
    <poly id="602815897" type="building.yes" color="255,230,230" fill="1" layer="-1.00" shape="1095.010209,440.328236 1097.355506,450.499480 1110.004252,447.623007 1107.669526,437.451653 1095.010209,440.328236"/>
    <poly id="602815898" type="building.yes" color="255,230,230" fill="1" layer="-1.00" shape="1098.005041,421.422697 1099.864607,431.621116 1105.664784,430.575765 1103.805221,420.377347 1098.005041,421.422697"/>
    <poly id="602815899" type="building.yes" color="255,230,230" fill="1" layer="-1.00" shape="1091.925475,423.035520 1093.746144,430.500029 1097.424380,429.620580 1095.603712,422.156071 1091.925475,423.035520"/>
    <poly id="602815900" type="building.yes" color="255,230,230" fill="1" layer="-1.00" shape="1087.267736,424.212944 1088.228432,433.313670 1091.204592,432.995001 1090.233334,423.894385 1087.267736,424.212944"/>
    <poly id="602815901" type="building.yes" color="255,230,230" fill="1" layer="-1.00" shape="1068.473495,429.477851 1070.216402,440.651645 1083.940181,438.538918 1082.197282,427.365123 1068.473495,429.477851"/>
    <poly id="602815903" type="building.yes" color="255,230,230" fill="1" layer="-1.00" shape="1049.731241,424.469194 1048.769177,442.755887 1053.589612,443.004808 1054.541116,424.718225 1049.731241,424.469194"/>
    <poly id="602815904" type="building.yes" color="255,230,230" fill="1" layer="-1.00" shape="1055.876189,416.933181 1056.144805,442.845479 1066.624625,442.736843 1066.356024,416.824547 1055.876189,416.933181"/>
    <poly id="602815906" type="building.yes" color="255,230,230" fill="1" layer="-1.00" shape="1057.257486,401.376456 1058.758551,414.700354 1062.790003,414.260041 1061.288826,400.925074 1057.257486,401.376456"/>
    <poly id="602815908" type="building.yes" color="255,230,230" fill="1" layer="-1.00" shape="1085.723746,398.590622 1087.000445,408.617960 1099.166574,407.085965 1097.889882,397.058628 1085.723746,398.590622"/>
    <poly id="602815910" type="building.yes" color="255,230,230" fill="1" layer="-1.00" shape="1070.841433,412.272527 1083.848587,409.314833 1081.314622,398.271009 1068.307346,401.217634 1070.841433,412.272527"/>
    <poly id="602815913" type="building.yes" color="255,230,230" fill="1" layer="-1.00" shape="1114.545316,362.801222 1115.072640,370.865850 1140.845706,369.192882 1140.307828,361.128364 1114.545316,362.801222"/>
    <poly id="602815914" type="building.yes" color="255,230,230" fill="1" layer="-1.00" shape="1096.455952,367.782037 1100.998912,385.092852 1108.912332,383.040365 1104.369379,365.729550 1096.455952,367.782037"/>
    <poly id="602815915" type="building.yes" color="255,230,230" fill="1" layer="-1.00" shape="1059.582864,364.776774 1061.997584,383.681597 1091.151941,380.003035 1088.737250,361.098211 1059.582864,364.776774"/>
    <poly id="602815916" type="building.yes" color="255,230,230" fill="1" layer="-1.00" shape="1060.257638,347.312249 1061.326612,358.703360 1081.708879,356.798371 1080.639918,345.407260 1060.257638,347.312249"/>
    <poly id="602815917" type="building.yes" color="255,230,230" fill="1" layer="-1.00" shape="1214.188989,297.551349 1214.099649,311.367733 1222.816769,311.421359 1222.895437,297.594016 1214.188989,297.551349"/>
    <poly id="602815918" type="building.yes" color="255,230,230" fill="1" layer="-1.00" shape="1190.989600,301.876507 1191.258498,311.515762 1211.728638,310.949488 1211.459750,301.310234 1190.989600,301.876507"/>
    <poly id="602815919" type="building.yes" color="255,230,230" fill="1" layer="-1.00" shape="1183.459632,299.131638 1186.207849,315.564380 1190.743317,314.819983 1187.984540,298.387350 1183.459632,299.131638"/>
    <poly id="602815920" type="building.yes" color="255,230,230" fill="1" layer="-1.00" shape="1187.665447,274.722822 1189.325903,289.163148 1210.484966,286.763175 1208.824527,272.322849 1187.665447,274.722822"/>
    <poly id="602815921" type="building.yes" color="255,230,230" fill="1" layer="-1.00" shape="1166.967647,253.317364 1166.978267,257.402114 1176.265091,257.372329 1176.244023,253.298757 1166.967647,253.317364"/>
    <poly id="602815922" type="building.yes" color="255,230,230" fill="1" layer="-1.00" shape="1160.640268,251.412440 1161.005893,259.168779 1164.902678,258.984498 1164.537054,251.228158 1160.640268,251.412440"/>
    <poly id="602815923" type="building.yes" color="255,230,230" fill="1" layer="-1.00" shape="1163.793383,261.032885 1165.987324,278.013803 1173.774349,277.014316 1171.569851,260.033508 1163.793383,261.032885"/>
    <poly id="602815924" type="building.yes" color="255,230,230" fill="1" layer="-1.00" shape="1163.618700,278.846457 1164.850562,297.807817 1183.180172,296.632694 1181.958893,277.671226 1163.618700,278.846457"/>
    <poly id="602815925" type="building.yes" color="255,230,230" fill="1" layer="-1.00" shape="1146.921456,318.262893 1164.267755,317.020448 1162.837361,297.253029 1145.491044,298.495474 1146.921456,318.262893"/>
    <poly id="602815926" type="building.yes" color="255,230,230" fill="1" layer="-1.00" shape="1142.980032,290.683871 1143.280572,297.256387 1157.590189,296.609975 1157.289653,290.037460 1142.980032,290.683871"/>
    <poly id="602815927" type="building.yes" color="255,230,230" fill="1" layer="-1.00" shape="1141.745963,280.689301 1142.540940,289.094328 1159.461135,287.513124 1158.666166,279.108097 1141.745963,280.689301"/>
    <poly id="602815928" type="building.yes" color="255,230,230" fill="1" layer="-1.00" shape="1141.318549,273.088582 1141.446415,277.271749 1159.074766,276.734866 1158.946904,272.551700 1141.318549,273.088582"/>
    <poly id="602815929" type="building.yes" color="255,230,230" fill="1" layer="-1.00" shape="1148.940899,264.352804 1149.197472,269.741276 1161.025272,269.198073 1160.768702,263.809601 1148.940899,264.352804"/>
    <poly id="602815930" type="building.yes" color="255,230,230" fill="1" layer="-1.00" shape="1139.586217,263.951572 1139.597734,270.161770 1146.887877,270.152658 1146.887041,263.953420 1139.586217,263.951572"/>
    <poly id="602815931" type="building.yes" color="255,230,230" fill="1" layer="-1.00" shape="1138.493478,247.202788 1137.193689,257.378592 1156.850158,259.853898 1158.149957,249.678096 1138.493478,247.202788"/>
    <poly id="602815933" type="building.yes" color="255,230,230" fill="1" layer="-1.00" shape="1122.609632,245.817556 1122.786464,255.745589 1132.705666,255.565319 1132.528954,245.648355 1122.609632,245.817556"/>
    <poly id="602815934" type="building.yes" color="255,230,230" fill="1" layer="-1.00" shape="1112.746138,244.237109 1110.186695,252.145532 1116.154890,254.054162 1118.714335,246.145741 1112.746138,244.237109"/>
    <poly id="602815935" type="building.yes" color="255,230,230" fill="1" layer="-1.00" shape="1096.461455,238.837611 1094.557313,250.846247 1109.743551,253.223923 1111.647702,241.215289 1096.461455,238.837611"/>
    <poly id="602815936" type="building.yes" color="255,230,230" fill="1" layer="-1.00" shape="1083.074810,238.832433 1082.596240,245.667636 1091.382519,246.273993 1091.871771,239.449750 1083.074810,238.832433"/>
    <poly id="602815937" type="building.yes" color="255,230,230" fill="1" layer="-1.00" shape="1122.587562,256.943219 1122.045530,268.871317 1128.419551,269.159513 1128.961587,257.231416 1122.587562,256.943219"/>
    <poly id="602815938" type="building.yes" color="255,230,230" fill="1" layer="-1.00" shape="1106.759194,254.793590 1106.236465,266.544368 1119.206247,267.107384 1119.728984,255.356607 1106.759194,254.793590"/>
    <poly id="602815940" type="building.yes" color="255,230,230" fill="1" layer="-1.00" shape="1093.556778,252.173957 1091.705473,263.163598 1100.860569,264.696023 1102.711879,253.706383 1093.556778,252.173957"/>
    <poly id="602815941" type="building.yes" color="255,230,230" fill="1" layer="-1.00" shape="1082.133772,249.978693 1081.122590,259.454098 1089.711121,260.350325 1090.711742,250.875031 1082.133772,249.978693"/>
    <poly id="602815942" type="building.yes" color="255,230,230" fill="1" layer="-1.00" shape="1115.006792,284.984807 1115.228126,290.030473 1132.928354,289.293558 1132.717474,284.236715 1115.006792,284.984807"/>
    <poly id="602815943" type="building.yes" color="255,230,230" fill="1" layer="-1.00" shape="1090.799135,293.969972 1107.908384,298.397819 1112.136860,282.302376 1095.027484,277.863455 1090.799135,293.969972"/>
    <poly id="602815944" type="building.yes" color="255,230,230" fill="1" layer="-1.00" shape="1083.379438,274.342115 1079.239629,290.835170 1089.535775,293.385281 1093.675593,276.892228 1083.379438,274.342115"/>
    <poly id="602815945" type="building.yes" color="255,230,230" fill="1" layer="-1.00" shape="1106.160545,319.371605 1133.480799,317.118026 1131.803262,296.954644 1104.472415,299.208332 1106.160545,319.371605"/>
    <poly id="602815946" type="building.yes" color="255,230,230" fill="1" layer="-1.00" shape="1131.913758,350.444149 1140.258486,349.228534 1139.098571,341.292232 1130.743275,342.507956 1131.913758,350.444149"/>
    <poly id="602815947" type="building.yes" color="255,230,230" fill="1" layer="-1.00" shape="1177.687652,371.235525 1186.743051,370.289320 1185.852441,361.829933 1176.796923,362.765069 1177.687652,371.235525"/>
    <poly id="602815948" type="building.yes" color="255,230,230" fill="1" layer="-1.00" shape="1209.281534,357.247769 1210.673623,364.141080 1218.866089,362.506414 1217.484568,355.612993 1209.281534,357.247769"/>
    <poly id="602815949" type="building.yes" color="255,230,230" fill="1" layer="-1.00" shape="1208.315771,352.752250 1208.811903,355.769243 1215.741806,354.645807 1215.245561,351.617745 1208.315771,352.752250"/>
    <poly id="602815950" type="building.yes" color="255,230,230" fill="1" layer="-1.00" shape="1199.408065,344.497677 1199.975957,355.462245 1203.376196,355.283113 1202.808305,344.318545 1199.408065,344.497677"/>
    <poly id="602815951" type="building.yes" color="255,230,230" fill="1" layer="-1.00" shape="1221.289829,347.614194 1225.665382,364.074364 1244.104885,359.233959 1239.729347,342.773787 1221.289829,347.614194"/>
    <poly id="602815952" type="building.yes" color="255,230,230" fill="1" layer="-1.00" shape="1225.163091,331.898845 1225.812607,336.464061 1235.001806,335.173322 1234.352292,330.608107 1225.163091,331.898845"/>
    <poly id="602815953" type="building.yes" color="255,230,230" fill="1" layer="-1.00" shape="1225.579378,317.005277 1226.261937,329.861640 1233.487291,329.720389 1228.905672,316.826917 1225.579378,317.005277"/>
    <poly id="602815954" type="building.yes" color="255,230,230" fill="1" layer="-1.00" shape="1220.081730,318.700588 1220.004133,330.590657 1223.681228,330.618994 1223.758827,318.728925 1220.081730,318.700588"/>
    <poly id="602815955" type="building.yes" color="255,230,230" fill="1" layer="-1.00" shape="1209.511843,331.540657 1218.072225,330.743508 1216.871890,317.881437 1208.300823,318.667628 1209.511843,331.540657"/>
    <poly id="602815956" type="building.yes" color="255,230,230" fill="1" layer="-1.00" shape="1189.770840,320.896461 1191.383861,335.857572 1199.447027,334.999144 1197.844577,320.037923 1189.770840,320.896461"/>
    <poly id="602815957" type="building.yes" color="255,230,230" fill="1" layer="-1.00" shape="1152.076239,340.582124 1159.647235,340.149441 1158.745114,324.461409 1151.174112,324.894092 1152.076239,340.582124"/>
    <poly id="602815958" type="building.yes" color="255,230,230" fill="1" layer="-1.00" shape="1166.618985,335.925930 1182.892531,334.141110 1182.099965,326.986978 1165.826412,328.771798 1166.618985,335.925930"/>
    <poly id="602815959" type="building.yes" color="255,230,230" fill="1" layer="-1.00" shape="1169.032309,356.745894 1187.000854,354.378942 1184.629418,336.580676 1166.660856,338.947629 1169.032309,356.745894"/>
    <poly id="602815960" type="building.yes" color="255,230,230" fill="1" layer="-1.00" shape="1151.355507,353.619080 1158.365095,353.048301 1157.892303,347.186055 1150.882599,347.745765 1151.355507,353.619080"/>
    <poly id="602815961" type="building.yes" color="255,230,230" fill="1" layer="-1.00" shape="1151.854516,356.912794 1152.363947,362.232227 1161.420382,361.385630 1160.921403,356.055019 1151.854516,356.912794"/>
    <poly id="602815962" type="building.yes" color="255,230,230" fill="1" layer="-1.00" shape="1159.907672,365.286902 1160.558525,374.058735 1166.153970,373.646521 1165.503235,364.885757 1159.907672,365.286902"/>
    <poly id="602815963" type="building.yes" color="255,230,230" fill="1" layer="-1.00" shape="1152.965503,365.225987 1153.475797,374.707762 1158.364921,374.446775 1157.854628,364.965000 1152.965503,365.225987"/>
    <poly id="602815964" type="building.yes" color="255,230,230" fill="1" layer="-1.00" shape="1170.244632,385.039537 1172.292355,396.066265 1189.766188,392.863110 1187.707911,381.836490 1170.244632,385.039537"/>
    <poly id="602815965" type="building.yes" color="255,230,230" fill="1" layer="-1.00" shape="1170.946197,404.825577 1173.116118,414.389788 1177.069032,413.507510 1174.909563,403.932120 1170.946197,404.825577"/>
    <poly id="602815966" type="building.yes" color="255,230,230" fill="1" layer="-1.00" shape="1175.927353,400.190958 1183.671316,419.516587 1193.899036,415.469685 1186.155083,396.144052 1175.927353,400.190958"/>
    <poly id="602815967" type="building.yes" color="255,230,230" fill="1" layer="-1.00" shape="1174.042770,416.129261 1175.869872,421.158290 1182.722489,418.696160 1180.884825,413.667240 1174.042770,416.129261"/>
    <poly id="602815968" type="building.yes" color="255,230,230" fill="1" layer="-1.00" shape="1163.371499,426.313596 1173.331076,422.900455 1171.305215,417.043230 1161.345636,420.456371 1163.371499,426.313596"/>
    <poly id="602815970" type="building.yes" color="255,230,230" fill="1" layer="-1.00" shape="1157.850760,405.381916 1159.366629,414.023016 1169.691578,412.222321 1168.175713,403.581220 1157.850760,405.381916"/>
    <poly id="602815971" type="building.yes" color="255,230,230" fill="1" layer="-1.00" shape="1169.520841,444.692645 1170.982791,449.149812 1185.745815,444.347432 1184.273304,439.890373 1169.520841,444.692645"/>
    <poly id="602815972" type="building.yes" color="255,230,230" fill="1" layer="-1.00" shape="1161.015355,431.408106 1164.870371,443.512047 1184.079162,437.468036 1180.224157,425.364092 1161.015355,431.408106"/>
    <poly id="602815973" type="building.yes" color="255,230,230" fill="1" layer="-1.00" shape="1174.884025,456.537420 1172.956916,451.033414 1166.124408,453.395710 1169.413000,462.837630 1189.858156,455.795576 1188.486000,451.846701 1174.884025,456.537420"/>
    <poly id="602815974" type="building.yes" color="255,230,230" fill="1" layer="-1.00" shape="1174.888711,449.851041 1175.992290,453.370965 1186.513253,450.095924 1185.409676,446.576001 1174.888711,449.851041"/>
    <poly id="602815975" type="building.yes" color="255,230,230" fill="1" layer="-1.00" shape="1191.143459,439.121786 1191.565523,450.287127 1201.767794,449.904689 1201.335057,438.728389 1191.143459,439.121786"/>
    <poly id="602815976" type="building.yes" color="255,230,230" fill="1" layer="-1.00" shape="1201.981638,432.810267 1205.303074,448.484307 1210.606037,447.377719 1207.284606,431.703678 1201.981638,432.810267"/>
    <poly id="602815977" type="building.yes" color="255,230,230" fill="1" layer="-1.00" shape="1245.738693,423.135674 1249.894211,432.635046 1257.583265,429.322955 1253.427636,419.812512 1245.738693,423.135674"/>
    <poly id="602815978" type="building.yes" color="255,230,230" fill="1" layer="-1.00" shape="1216.643787,425.407489 1221.995986,440.274520 1233.006837,436.352368 1227.654645,421.485335 1216.643787,425.407489"/>
    <poly id="602815979" type="building.yes" color="255,230,230" fill="1" layer="-1.00" shape="1216.423535,376.601785 1217.230224,383.080497 1232.161254,381.232130 1231.354684,374.764487 1216.423535,376.601785"/>
    <poly id="602815980" type="building.yes" color="255,230,230" fill="1" layer="-1.00" shape="1260.441553,413.540634 1270.457199,409.418481 1260.510513,385.510483 1250.073772,389.780912 1260.441553,413.540634"/>
    <poly id="602815981" type="building.yes" color="255,230,230" fill="1" layer="-1.00" shape="1243.329598,382.312032 1245.305712,388.468671 1248.981095,387.312530 1247.004868,381.144822 1243.329598,382.312032"/>
    <poly id="602815982" type="building.yes" color="255,230,230" fill="1" layer="-1.00" shape="1239.595988,383.966930 1241.821387,390.729842 1244.717070,389.781036 1242.491786,383.029194 1239.595988,383.966930"/>
    <poly id="602815983" type="building.yes" color="255,230,230" fill="1" layer="-1.00" shape="1264.488575,427.867686 1277.050582,422.733930 1271.859830,410.189932 1259.308380,415.323581 1264.488575,427.867686"/>
    <poly id="602815984" type="building.yes" color="255,230,230" fill="1" layer="-1.00" shape="1269.865820,433.933756 1277.737880,450.335586 1287.610442,445.661418 1279.738389,429.259585 1269.865820,433.933756"/>