<?xml version="1.0" encoding="UTF-8"?>

<!-- generated on 2024-12-24 20:26:45.002094 by osmWebWizard.py v1_21_0+0000-d7b3b481c43
<configuration>
    <net-file value="C:\Users\Varun\AppData\Roaming\Microsoft\Windows\Start Menu\Programs\SUMO\2024-12-24-20-26-40\osm.net.xml.gz"/>
    <output-trip-file value="C:\Users\Varun\AppData\Roaming\Microsoft\Windows\Start Menu\Programs\SUMO\2024-12-24-20-26-40\osm.bus.trips.xml"/>
    <route-file value="C:\Users\Varun\AppData\Roaming\Microsoft\Windows\Start Menu\Programs\SUMO\2024-12-24-20-26-40\osm.bus.rou.xml"/>
    <prefix value="bus"/>
    <trip-attributes value="departLane=&quot;best&quot;"/>
    <fringe-start-attributes value="departSpeed=&quot;max&quot;"/>
    <vehicle-class value="bus"/>
    <fringe-factor value="5"/>
    <vclass value="bus"/>
    <via-edge-types value="highway.motorway,highway.motorway_link,highway.trunk_link,highway.primary_link,highway.secondary_link,highway.tertiary_link"/>
    <min-distance value="600.0"/>
    <min-distance.fringe value="10.0"/>
    <remove-loops value="True"/>
    <validate value="True"/>
    <insertion-density value="4.0"/>
</configuration>
-->

<!-- generated on 2024-12-24 20:26:44 by Eclipse SUMO duarouter Version 1.21.0
<duarouterConfiguration xmlns:xsi="http://www.w3.org/2001/XMLSchema-instance" xsi:noNamespaceSchemaLocation="http://sumo.dlr.de/xsd/duarouterConfiguration.xsd">

    <input>
        <net-file value="C:\Users\Varun\AppData\Roaming\Microsoft\Windows\Start Menu\Programs\SUMO\2024-12-24-20-26-40\osm.net.xml.gz"/>
        <route-files value="C:\Users\Varun\AppData\Roaming\Microsoft\Windows\Start Menu\Programs\SUMO\2024-12-24-20-26-40\osm.bus.trips.xml"/>
    </input>

    <output>
        <output-file value="C:\Users\Varun\AppData\Roaming\Microsoft\Windows\Start Menu\Programs\SUMO\2024-12-24-20-26-40\osm.bus.trips.xml.tmp"/>
        <alternatives-output value="NUL"/>
        <write-trips value="true"/>
    </output>

    <processing>
        <remove-loops value="true"/>
    </processing>

    <time>
        <begin value="0.0"/>
        <end value="3600.0"/>
    </time>

    <report>
        <no-warnings value="true"/>
        <ignore-errors value="true"/>
        <no-step-log value="true"/>
    </report>

</duarouterConfiguration>
-->

<routes xmlns:xsi="http://www.w3.org/2001/XMLSchema-instance" xsi:noNamespaceSchemaLocation="http://sumo.dlr.de/xsd/routes_file.xsd">
    <vType id="bus_bus" vClass="bus" accel="1.0" decel="3.0" sigma="0.5" maxSpeed="25.0" length="12.0" 
       lcStrategic="1.0" lcCooperative="0.5" lcSpeedGain="1.0" lcKeepRight="0.3" />
    
   
    <trip id="bus0" type="bus_bus" depart="0.00" departLane="best" from="280676694#1" to="280472297#1"/>
    <trip id="bus1" type="bus_bus" depart="21.60" departLane="best" from="-280680768" to="280680647#1"/>
    <trip id="bus2" type="bus_bus" depart="43.21" departLane="best" departSpeed="max" from="376558262" to="280676563#4"/>
    <trip id="bus3" type="bus_bus" depart="64.81" departLane="best" from="-280680646#8" to="280676602"/>
    <trip id="bus4" type="bus_bus" depart="86.41" departLane="best" from="280680837#2" to="-241720911#10"/>
    <trip id="bus5" type="bus_bus" depart="108.01" departLane="best" from="280680836" to="-280680642#0"/>
    <trip id="bus6" type="bus_bus" depart="129.62" departLane="best" from="280475189#0" to="874502244"/>
    <trip id="bus7" type="bus_bus" depart="151.22" departLane="best" from="-280680916#2" to="280676563#5"/>
    <trip id="bus8" type="bus_bus" depart="172.82" departLane="best" from="-280676563#10" to="-280680648#2"/>
    <trip id="bus9" type="bus_bus" depart="194.42" departLane="best" from="-280680916#2" to="-280680642#1"/>
    <trip id="bus10" type="bus_bus" depart="216.03" departLane="best" from="-280676716#0" to="-280680923#1"/>
    <trip id="bus11" type="bus_bus" depart="237.63" departLane="best" from="-280676558#7" to="280680637#5"/>
    <trip id="bus12" type="bus_bus" depart="259.23" departLane="best" from="-280680647#7" to="-280472285#0"/>
    <trip id="bus13" type="bus_bus" depart="280.84" departLane="best" from="280676757#1" to="-376558271#0"/>
    <trip id="bus14" type="bus_bus" depart="302.44" departLane="best" from="-376558271#8" to="874993006#5"/>
    <trip id="bus15" type="bus_bus" depart="324.04" departLane="best" from="280676604#1" to="881934737#7"/>
    <trip id="bus16" type="bus_bus" depart="345.64" departLane="best" from="-280676563#8" to="-280475177"/>
    <trip id="bus17" type="bus_bus" depart="367.25" departLane="best" from="-280676632" to="280676661#2"/>
    <trip id="bus18" type="bus_bus" depart="388.85" departLane="best" from="-280676634#0" to="-874502240"/>
    <trip id="bus19" type="bus_bus" depart="410.45" departLane="best" from="-280680808#1" to="280676683#1"/>
    <trip id="bus20" type="bus_bus" depart="432.05" departLane="best" from="301350260" to="280680869#0"/>
    <trip id="bus21" type="bus_bus" depart="453.66" departLane="best" from="-280680822#1" to="280676552#2"/>
    <trip id="bus22" type="bus_bus" depart="475.26" departLane="best" from="135955892#2" to="280676552#8"/>
    <trip id="bus23" type="bus_bus" depart="496.86" departLane="best" from="-280680872#1" to="280676602"/>
    <trip id="bus24" type="bus_bus" depart="518.47" departLane="best" from="-280680647#7" to="376558271#0"/>
    <trip id="bus25" type="bus_bus" depart="540.07" departLane="best" from="280680916#1" to="-280676558#4"/>
    <trip id="bus26" type="bus_bus" depart="561.67" departLane="best" from="-280680656" to="-280676785#3"/>
    <trip id="bus27" type="bus_bus" depart="583.27" departLane="best" from="135955892#12" to="280680795#3"/>
    <trip id="bus28" type="bus_bus" depart="604.88" departLane="best" from="280680837#0" to="-280676806#5"/>
    <trip id="bus29" type="bus_bus" depart="626.48" departLane="best" from="280680671#0" to="-280676795#3"/>
    <trip id="bus30" type="bus_bus" depart="648.08" departLane="best" from="-874599898" to="-280676587"/>
    <trip id="bus31" type="bus_bus" depart="669.68" departLane="best" from="-376558271#7" to="-280680877#0"/>
    <trip id="bus32" type="bus_bus" depart="691.29" departLane="best" from="-873382994#0" to="-280680775#2"/>
    <trip id="bus33" type="bus_bus" depart="712.89" departLane="best" from="280676558#2" to="-280475181#2"/>
    <trip id="bus34" type="bus_bus" depart="734.49" departLane="best" from="874502240" to="385697442#17"/>
    <trip id="bus36" type="bus_bus" depart="777.70" departLane="best" from="-376558271#6" to="280676552#2"/>
    <trip id="bus37" type="bus_bus" depart="799.30" departLane="best" from="-280680743" to="280680795#3"/>
    <trip id="bus38" type="bus_bus" depart="820.90" departLane="best" from="-874993006#2" to="873382994#1"/>
    <trip id="bus39" type="bus_bus" depart="842.51" departLane="best" from="-873382994#1" to="874993006#6"/>
    <trip id="bus40" type="bus_bus" depart="864.11" departLane="best" from="-280676683#1" to="-280680808#0"/>
    <trip id="bus41" type="bus_bus" depart="885.71" departLane="best" from="280676552#5" to="280680711"/>
    <trip id="bus42" type="bus_bus" depart="907.31" departLane="best" from="241720911#7" to="280680896#0"/>
    <trip id="bus43" type="bus_bus" depart="928.92" departLane="best" from="-280680648#5" to="-280676660#12"/>
    <trip id="bus44" type="bus_bus" depart="950.52" departLane="best" from="-873347097#1" to="280676579#0"/>
    <trip id="bus45" type="bus_bus" depart="972.12" departLane="best" from="-280472324#1" to="385697442#6"/>
    <trip id="bus46" type="bus_bus" depart="993.73" departLane="best" from="-280680837#0" to="280680733#0"/>
    <trip id="bus47" type="bus_bus" depart="1015.33" departLane="best" from="309136914#1" to="280680927#1"/>
    <trip id="bus48" type="bus_bus" depart="1036.93" departLane="best" from="280676757#0" to="-241720911#11"/>
    <trip id="bus49" type="bus_bus" depart="1058.53" departLane="best" from="280676785#3" to="449394146"/>
    <trip id="bus50" type="bus_bus" depart="1080.14" departLane="best" from="280680757" to="280676660#10"/>
    <trip id="bus51" type="bus_bus" depart="1101.74" departLane="best" from="-873382994#1" to="-280680775#0"/>
    <trip id="bus53" type="bus_bus" depart="1144.94" departLane="best" from="280680710" to="280676558#1"/>
    <trip id="bus54" type="bus_bus" depart="1166.55" departLane="best" from="-874502235" to="241720911#15"/>
    <trip id="bus55" type="bus_bus" depart="1188.15" departLane="best" from="376558267#3" to="280676552#2"/>
    <trip id="bus56" type="bus_bus" depart="1209.75" departLane="best" from="280680884#0" to="280676570"/>
    <trip id="bus57" type="bus_bus" depart="1231.36" departLane="best" departSpeed="max" from="376558267#0" to="-280680642#1"/>
    <trip id="bus58" type="bus_bus" depart="1252.96" departLane="best" from="-280680694" to="-280676604#1"/>
    <trip id="bus59" type="bus_bus" depart="1274.56" departLane="best" from="280680917#1" to="874502248#1"/>
    <trip id="bus61" type="bus_bus" depart="1317.77" departLane="best" from="280680808#0" to="-280676627"/>
    <trip id="bus62" type="bus_bus" depart="1339.37" departLane="best" from="874502248#5" to="280475177"/>
    <trip id="bus63" type="bus_bus" depart="1360.97" departLane="best" from="449394146" to="-280676660#0"/>
    <trip id="bus64" type="bus_bus" depart="1382.57" departLane="best" from="280676660#5" to="280472262#2"/>
    <trip id="bus65" type="bus_bus" depart="1404.18" departLane="best" from="-280680927#3" to="280676563#5"/>
    <trip id="bus66" type="bus_bus" depart="1425.78" departLane="best" from="280680711" to="-280676795#0"/>
    <trip id="bus67" type="bus_bus" depart="1447.38" departLane="best" from="280676795#0" to="280680867"/>
    <trip id="bus68" type="bus_bus" depart="1468.98" departLane="best" from="-280680825#0" to="-869030128"/>
    <trip id="bus69" type="bus_bus" depart="1490.59" departLane="best" from="-376558271#7" to="280680803#1"/>
    <trip id="bus70" type="bus_bus" depart="1512.19" departLane="best" from="-280676660#8" to="280680793#1"/>
    <trip id="bus71" type="bus_bus" depart="1533.79" departLane="best" from="376558267#3" to="280676660#8"/>
    <trip id="bus72" type="bus_bus" depart="1555.40" departLane="best" from="-280680810#1" to="280676552#5"/>
    <trip id="bus73" type="bus_bus" depart="1577.00" departLane="best" from="280676757#1" to="1125366769"/>
    <trip id="bus74" type="bus_bus" depart="1598.60" departLane="best" from="-874502248#1" to="-280680646#2"/>
    <trip id="bus75" type="bus_bus" depart="1620.20" departLane="best" from="135955892#13" to="376558270#1"/>
    <trip id="bus76" type="bus_bus" depart="1641.81" departLane="best" from="280680822#0" to="-280676734#1"/>
    <trip id="bus77" type="bus_bus" depart="1663.41" departLane="best" from="-280676563#14" to="280472263#1"/>
    <trip id="bus78" type="bus_bus" depart="1685.01" departLane="best" from="-280680682#0" to="135955892#14"/>
    <trip id="bus79" type="bus_bus" depart="1706.61" departLane="best" from="280676757#3" to="-241720911#0"/>
    <trip id="bus80" type="bus_bus" depart="1728.22" departLane="best" departSpeed="max" from="376558262" to="280676660#6"/>
    <trip id="bus81" type="bus_bus" depart="1749.82" departLane="best" from="-280680690" to="280676680#1"/>
    <trip id="bus82" type="bus_bus" depart="1771.42" departLane="best" from="280680775#1" to="280472285#2"/>
    <trip id="bus83" type="bus_bus" depart="1793.03" departLane="best" from="-280676558#9" to="-280680795#0"/>
    <trip id="bus84" type="bus_bus" depart="1814.63" departLane="best" from="280680757" to="-280680837#3"/>
    <trip id="bus85" type="bus_bus" depart="1836.23" departLane="best" from="280680646#9" to="-280676558#1"/>
    <trip id="bus86" type="bus_bus" depart="1857.83" departLane="best" from="280676604#1" to="280680638#6"/>
    <trip id="bus87" type="bus_bus" depart="1879.44" departLane="best" from="-280680923#1" to="-241720911#0"/>
    <trip id="bus88" type="bus_bus" depart="1901.04" departLane="best" from="-280680901#0" to="873347097#1"/>
    <trip id="bus89" type="bus_bus" depart="1922.64" departLane="best" from="-874502241" to="-280472263#2"/>
    <trip id="bus90" type="bus_bus" depart="1944.24" departLane="best" from="-280680869#1" to="-280676806#5"/>
    <trip id="bus91" type="bus_bus" depart="1965.85" departLane="best" from="-376558271#8" to="-280676716#1"/>
    <trip id="bus93" type="bus_bus" depart="2009.05" departLane="best" from="280676661#3" to="280472263#0"/>
    <trip id="bus94" type="bus_bus" depart="2030.66" departLane="best" from="315946003#3" to="280676558#9"/>
    <trip id="bus95" type="bus_bus" depart="2052.26" departLane="best" from="-280475181#1" to="-280680923#0"/>
    <trip id="bus96" type="bus_bus" depart="2073.86" departLane="best" from="-280680768" to="-280680923#0"/>
    <trip id="bus97" type="bus_bus" depart="2095.46" departLane="best" from="-280680709" to="-280676563#12"/>
    <trip id="bus98" type="bus_bus" depart="2117.07" departLane="best" from="280676734#0" to="280680793#1"/>
    <trip id="bus99" type="bus_bus" depart="2138.67" departLane="best" from="241720911#6" to="-280676680#1"/>
    <trip id="bus100" type="bus_bus" depart="2160.27" departLane="best" from="280676563#12" to="-280680646#6"/>
    <trip id="bus101" type="bus_bus" depart="2181.87" departLane="best" from="280676728#0" to="280676660#12"/>
    <trip id="bus102" type="bus_bus" depart="2203.48" departLane="best" from="280680865#1" to="874502237"/>
    <trip id="bus103" type="bus_bus" depart="2225.08" departLane="best" from="-280676627" to="280472262#2"/>
    <trip id="bus104" type="bus_bus" depart="2246.68" departLane="best" from="-280680826#0" to="280676806#4"/>
    <trip id="bus105" type="bus_bus" depart="2268.29" departLane="best" from="280680896#3" to="280676634#2"/>
    <trip id="bus106" type="bus_bus" depart="2289.89" departLane="best" from="280680801#0" to="280680886#0"/>
    <trip id="bus107" type="bus_bus" depart="2311.49" departLane="best" from="-874502235" to="-280680916#2"/>
    <trip id="bus108" type="bus_bus" depart="2333.09" departLane="best" from="280472262#2" to="-280680877#2"/>
    <trip id="bus109" type="bus_bus" depart="2354.70" departLane="best" from="280680690" to="874502238"/>
    <trip id="bus110" type="bus_bus" depart="2376.30" departLane="best" from="-280680756#0" to="280680826#1"/>
    <trip id="bus111" type="bus_bus" depart="2397.90" departLane="best" from="280676552#0" to="135955892#4"/>
    <trip id="bus112" type="bus_bus" depart="2419.50" departLane="best" from="309136914#2" to="-280680682#0"/>
    <trip id="bus113" type="bus_bus" depart="2441.11" departLane="best" from="1125366769" to="280676660#4"/>
    <trip id="bus114" type="bus_bus" depart="2462.71" departLane="best" from="-280680923#0" to="-280472263#1"/>
    <trip id="bus115" type="bus_bus" depart="2484.31" departLane="best" from="-280676564" to="-280680646#9"/>
    <trip id="bus116" type="bus_bus" depart="2505.92" departLane="best" from="-280680642#0" to="-280680822#0"/>
    <trip id="bus117" type="bus_bus" depart="2527.52" departLane="best" from="-280680695#1" to="-280676660#2"/>
    <trip id="bus118" type="bus_bus" depart="2549.12" departLane="best" from="874502248#1" to="280472297#1"/>
    <trip id="bus119" type="bus_bus" depart="2570.72" departLane="best" from="-280680784" to="-280676602"/>
    <trip id="bus120" type="bus_bus" depart="2592.33" departLane="best" from="-280680637#0" to="-280680647#6"/>
    <trip id="bus121" type="bus_bus" depart="2613.93" departLane="best" from="-280676785#2" to="-241720911#2"/>
    <trip id="bus122" type="bus_bus" depart="2635.53" departLane="best" from="280680643#1" to="280676660#7"/>
    <trip id="bus123" type="bus_bus" depart="2657.13" departLane="best" from="280680927#0" to="280676563#3"/>
    <trip id="bus124" type="bus_bus" depart="2678.74" departLane="best" from="-280676795#3" to="-280475181#2"/>
    <trip id="bus125" type="bus_bus" depart="2700.34" departLane="best" from="-604213899#0" to="135955892#14"/>
    <trip id="bus126" type="bus_bus" depart="2721.94" departLane="best" from="-280680867" to="376558271#5"/>
    <trip id="bus127" type="bus_bus" depart="2743.55" departLane="best" from="-280475188#3" to="-280676670#1"/>
    <trip id="bus128" type="bus_bus" depart="2765.15" departLane="best" from="280676563#11" to="-280680815"/>
    <trip id="bus129" type="bus_bus" depart="2786.75" departLane="best" from="280680775#0" to="280676660#12"/>
    <trip id="bus130" type="bus_bus" depart="2808.35" departLane="best" from="-280472324#1" to="-874987215"/>
    <trip id="bus131" type="bus_bus" depart="2829.96" departLane="best" from="-280680642#0" to="-280680643#0"/>
    <trip id="bus133" type="bus_bus" depart="2873.16" departLane="best" from="-873545067" to="280676552#0"/>
    <trip id="bus134" type="bus_bus" depart="2894.76" departLane="best" from="280676728#0" to="376558271#2"/>
    <trip id="bus135" type="bus_bus" depart="2916.37" departLane="best" from="-280680795#3" to="280676660#5"/>
    <trip id="bus136" type="bus_bus" depart="2937.97" departLane="best" from="-869030128" to="241720911#17"/>
    <trip id="bus137" type="bus_bus" depart="2959.57" departLane="best" from="241720911#17" to="-280676563#11"/>
    <trip id="bus138" type="bus_bus" depart="2981.18" departLane="best" from="-280472324#1" to="-874502238"/>
    <trip id="bus139" type="bus_bus" depart="3002.78" departLane="best" from="280680884#1" to="280676563#4"/>
    <trip id="bus140" type="bus_bus" depart="3024.38" departLane="best" from="-280472324#1" to="280680739#1"/>
    <trip id="bus141" type="bus_bus" depart="3045.98" departLane="best" from="-241720911#13" to="-280676563#9"/>
    <trip id="bus142" type="bus_bus" depart="3067.59" departLane="best" from="-280680886#0" to="280680868#1"/>
    <trip id="bus143" type="bus_bus" depart="3089.19" departLane="best" from="280676806#3" to="280680898#1"/>
    <trip id="bus144" type="bus_bus" depart="3110.79" departLane="best" from="-280680795#3" to="241720911#19"/>
    <trip id="bus145" type="bus_bus" depart="3132.39" departLane="best" from="280680846#2" to="-280676558#0"/>
    <trip id="bus146" type="bus_bus" depart="3154.00" departLane="best" from="-376558271#8" to="280472263#0"/>
    <trip id="bus147" type="bus_bus" depart="3175.60" departLane="best" from="280676552#5" to="-873347095#1"/>
    <trip id="bus148" type="bus_bus" depart="3197.20" departLane="best" from="-280676806#3" to="-280680898#1"/>
    <trip id="bus149" type="bus_bus" depart="3218.81" departLane="best" from="280676558#12" to="385697442#18"/>
    <trip id="bus150" type="bus_bus" depart="3240.41" departLane="best" from="-874502242" to="-280680642#0"/>
    <trip id="bus151" type="bus_bus" depart="3262.01" departLane="best" from="280676660#8" to="280680648#6"/>
    <trip id="bus152" type="bus_bus" depart="3283.61" departLane="best" from="874993006#3" to="376558271#7"/>
    <trip id="bus153" type="bus_bus" depart="3305.22" departLane="best" from="280676558#3" to="-280680927#2"/>
    <trip id="bus154" type="bus_bus" depart="3326.82" departLane="best" from="-873347095#2" to="385697442#6"/>
    <trip id="bus155" type="bus_bus" depart="3348.42" departLane="best" from="280472262#2" to="280680853"/>
    <trip id="bus156" type="bus_bus" depart="3370.02" departLane="best" from="241720911#10" to="-280676670#0"/>
    <trip id="bus157" type="bus_bus" depart="3391.63" departLane="best" from="280676552#0" to="-280680884#0"/>
    <trip id="bus158" type="bus_bus" depart="3413.23" departLane="best" from="280676558#3" to="-280475189#2"/>
    <trip id="bus159" type="bus_bus" depart="3434.83" departLane="best" from="-280676806#4" to="-280680642#0"/>
    <trip id="bus160" type="bus_bus" depart="3456.44" departLane="best" from="-280676563#7" to="-280680648#4"/>
    <trip id="bus161" type="bus_bus" depart="3478.04" departLane="best" from="874502248#5" to="241720911#10"/>
    <trip id="bus162" type="bus_bus" depart="3499.64" departLane="best" from="280676627" to="280680917#0"/>
    <trip id="bus163" type="bus_bus" depart="3521.24" departLane="best" from="280680927#2" to="-874502245"/>
    <trip id="bus164" type="bus_bus" depart="3542.85" departLane="best" from="-280676558#12" to="-280676661#8"/>
    <trip id="bus165" type="bus_bus" depart="3564.45" departLane="best" from="280680927#0" to="-874502248#2"/>
    <trip id="bus166" type="bus_bus" depart="3586.05" departLane="best" from="280680642#2" to="376558270#1"/>
</routes>
