<?xml version="1.0" encoding="UTF-8"?>

<!-- generated on 2025-02-09 18:46:06 by Eclipse SUMO netedit Version 1.21.0
<neteditConfiguration xmlns:xsi="http://www.w3.org/2001/XMLSchema-instance" xsi:noNamespaceSchemaLocation="http://sumo.dlr.de/xsd/neteditConfiguration.xsd">

    <input>
        <sumocfg-file value="C:/Users/Varun/SUMo/SUMO/2024-12-24-20-26-40/osm.sumocfg"/>
        <additional-files value="C:/Users/Varun/SUMo/SUMO/2024-12-24-20-26-40/osm.poly.xml"/>
        <route-files value="C:/Users/Varun/SUMo/SUMO/2024-12-24-20-26-40/osm.bus.trips.xml,C:/Users/Varun/SUMo/SUMO/2024-12-24-20-26-40/osm.motorcycle.trips.xml,C:/Users/Varun/SUMo/SUMO/2024-12-24-20-26-40/osm.passenger.trips.xml,C:/Users/Varun/SUMo/SUMO/2024-12-24-20-26-40/osm.truck.trips.xml,C:/Users/Varun/SUMo/SUMO/2024-12-24-20-26-40/osm.emergency.trips.xml"/>
        <sumo-net-file value="C:/Users/Varun/SUMo/SUMO/2024-12-24-20-26-40/osm.net.xml"/>
    </input>

    <output>
        <output-file value="C:/Users/Varun/SUMo/SUMO/2024-12-24-20-26-40/osm.net.xml"/>
    </output>

    <processing>
        <geometry.min-radius.fix.railways value="false"/>
        <geometry.max-grade.fix value="false"/>
        <offset.disable-normalization value="true"/>
        <lefthand value="1"/>
    </processing>

    <junctions>
        <no-turnarounds value="true"/>
        <junctions.corner-detail value="5"/>
        <junctions.limit-turn-speed value="5.50"/>
        <rectangular-lane-cut value="0"/>
    </junctions>

    <pedestrian>
        <walkingareas value="0"/>
    </pedestrian>

    <netedit>
        <ignore.routeelements value="false"/>
    </netedit>

</neteditConfiguration>
-->

<net version="1.20" junctionCornerDetail="5" lefthand="true" limitTurnSpeed="5.50" xmlns:xsi="http://www.w3.org/2001/XMLSchema-instance" xsi:noNamespaceSchemaLocation="http://sumo.dlr.de/xsd/net_file.xsd">

    <location netOffset="-300689.58,-2039318.41" convBoundary="0.00,0.00,1439.66,680.78" origBoundary="79.112842,18.434772,79.126447,18.440877" projParameter="+proj=utm +zone=44 +ellps=WGS84 +datum=WGS84 +units=m +no_defs"/>

    <type id="highway.primary" priority="12" numLanes="2" speed="27.78" disallow="tram rail_urban rail rail_electric rail_fast ship container cable_car subway aircraft wheelchair scooter drone" oneway="0"/>
    <type id="highway.residential" priority="3" numLanes="1" speed="13.89" disallow="tram rail_urban rail rail_electric rail_fast ship container cable_car subway aircraft wheelchair scooter drone" oneway="0"/>
    <type id="highway.tertiary" priority="10" numLanes="1" speed="22.22" disallow="tram rail_urban rail rail_electric rail_fast ship container cable_car subway aircraft wheelchair scooter drone" oneway="0"/>
    <type id="highway.unclassified" priority="4" numLanes="1" speed="13.89" disallow="tram rail_urban rail rail_electric rail_fast ship container cable_car subway aircraft wheelchair scooter drone" oneway="0"/>

    <edge id=":10009767005_0" function="internal">
        <lane id=":10009767005_0_0" index="0" disallow="tram rail_urban rail rail_electric rail_fast ship container cable_car subway aircraft wheelchair scooter drone" speed="13.89" length="14.83" shape="1245.87,343.72 1239.68,330.24"/>
    </edge>
    <edge id=":10009767005_1" function="internal">
        <lane id=":10009767005_1_0" index="0" disallow="tram rail_urban rail rail_electric rail_fast ship container cable_car subway aircraft wheelchair scooter drone" speed="9.55" length="3.64" shape="1245.87,343.72 1243.93,340.85 1243.78,340.75"/>
    </edge>
    <edge id=":10009767005_2" function="internal">
        <lane id=":10009767005_2_0" index="0" disallow="tram rail_urban rail rail_electric rail_fast ship container cable_car subway aircraft wheelchair scooter drone" speed="3.65" length="1.44" shape="1245.87,343.72 1244.64,342.96"/>
    </edge>
    <edge id=":10009767005_9" function="internal">
        <lane id=":10009767005_9_0" index="0" disallow="tram rail_urban rail rail_electric rail_fast ship container cable_car subway aircraft wheelchair scooter drone" speed="9.55" length="11.39" shape="1243.78,340.75 1241.15,338.90 1237.55,337.87 1233.12,337.77"/>
    </edge>
    <edge id=":10009767005_10" function="internal">
        <lane id=":10009767005_10_0" index="0" disallow="tram rail_urban rail rail_electric rail_fast ship container cable_car subway aircraft wheelchair scooter drone" speed="3.65" length="3.23" shape="1244.64,342.96 1243.75,342.93 1243.19,343.63 1242.96,345.05"/>
    </edge>
    <edge id=":10009767005_3" function="internal">
        <lane id=":10009767005_3_0" index="0" disallow="tram rail_urban rail rail_electric rail_fast ship container cable_car subway aircraft wheelchair scooter drone" speed="8.29" length="11.14" shape="1233.35,340.96 1236.76,341.01 1239.49,341.71 1241.56,343.06 1242.96,345.05"/>
    </edge>
    <edge id=":10009767005_4" function="internal">
        <lane id=":10009767005_4_0" index="0" disallow="tram rail_urban rail rail_electric rail_fast ship container cable_car subway aircraft wheelchair scooter drone" speed="7.52" length="15.77" shape="1233.35,340.96 1237.83,339.99 1240.38,337.88 1240.99,334.63 1239.68,330.24"/>
    </edge>
    <edge id=":10009767005_5" function="internal">
        <lane id=":10009767005_5_0" index="0" disallow="tram rail_urban rail rail_electric rail_fast ship container cable_car subway aircraft wheelchair scooter drone" speed="3.65" length="4.67" shape="1233.35,340.96 1234.49,340.07 1234.83,339.25 1234.37,338.48 1233.12,337.77"/>
    </edge>
    <edge id=":10009767005_6" function="internal">
        <lane id=":10009767005_6_0" index="0" disallow="tram rail_urban rail rail_electric rail_fast ship container cable_car subway aircraft wheelchair scooter drone" speed="5.87" length="9.11" shape="1236.78,331.58 1237.53,334.11 1237.18,335.99 1235.70,337.21 1233.12,337.77"/>
    </edge>
    <edge id=":10009767005_7" function="internal">
        <lane id=":10009767005_7_0" index="0" disallow="tram rail_urban rail rail_electric rail_fast ship container cable_car subway aircraft wheelchair scooter drone" speed="13.89" length="14.83" shape="1236.78,331.58 1242.96,345.05"/>
    </edge>
    <edge id=":10009767005_8" function="internal">
        <lane id=":10009767005_8_0" index="0" disallow="tram rail_urban rail rail_electric rail_fast ship container cable_car subway aircraft wheelchair scooter drone" speed="3.65" length="1.44" shape="1236.78,331.58 1238.00,332.33"/>
    </edge>
    <edge id=":10009767005_11" function="internal">
        <lane id=":10009767005_11_0" index="0" disallow="tram rail_urban rail rail_electric rail_fast ship container cable_car subway aircraft wheelchair scooter drone" speed="3.65" length="3.23" shape="1238.00,332.33 1238.90,332.36 1239.46,331.66 1239.68,330.24"/>
    </edge>
    <edge id=":10009767006_0" function="internal">
        <lane id=":10009767006_0_0" index="0" disallow="tram rail_urban rail rail_electric rail_fast ship container cable_car subway aircraft wheelchair scooter drone" speed="3.65" length="4.67" shape="1186.77,341.19 1185.63,342.08 1185.29,342.91 1185.75,343.68 1187.01,344.39"/>
    </edge>
    <edge id=":10291088970_0" function="internal">
        <lane id=":10291088970_0_0" index="0" disallow="tram rail_urban rail rail_electric rail_fast ship container cable_car subway aircraft wheelchair scooter drone" speed="6.55" length="9.09" shape="1322.53,132.99 1320.25,133.95 1318.20,133.94 1316.38,132.97 1314.78,131.05"/>
    </edge>
    <edge id=":10291088970_1" function="internal">
        <lane id=":10291088970_1_0" index="0" disallow="tram rail_urban rail rail_electric rail_fast ship container cable_car subway aircraft wheelchair scooter drone" speed="27.78" length="14.40" shape="1322.53,132.99 1310.18,140.40"/>
        <lane id=":10291088970_1_1" index="1" disallow="tram rail_urban rail rail_electric rail_fast ship container cable_car subway aircraft wheelchair scooter drone" speed="27.78" length="14.40" shape="1324.18,135.73 1311.83,143.14"/>
    </edge>
    <edge id=":10291088970_3" function="internal">
        <lane id=":10291088970_3_0" index="0" disallow="tram rail_urban rail rail_electric rail_fast ship container cable_car subway aircraft wheelchair scooter drone" speed="6.48" length="9.03" shape="1312.06,132.72 1313.04,135.00 1313.06,137.04 1312.11,138.84 1310.18,140.40"/>
    </edge>
    <edge id=":10291088970_4" function="internal">
        <lane id=":10291088970_4_0" index="0" disallow="tram rail_urban rail rail_electric rail_fast ship container cable_car subway aircraft wheelchair scooter drone" speed="3.65" length="4.67" shape="1312.06,132.72 1313.37,133.33 1314.26,133.25 1314.73,132.49 1314.78,131.05"/>
    </edge>
    <edge id=":10617402136_0" function="internal">
        <lane id=":10617402136_0_0" index="0" disallow="tram rail_urban rail rail_electric rail_fast ship container cable_car subway aircraft wheelchair scooter drone" speed="3.65" length="4.67" shape="1435.43,360.87 1436.32,362.00 1437.15,362.33 1437.91,361.87 1438.61,360.61"/>
    </edge>
    <edge id=":10617402137_0" function="internal">
        <lane id=":10617402137_0_0" index="0" disallow="tram rail_urban rail rail_electric rail_fast ship container cable_car subway aircraft wheelchair scooter drone" speed="3.65" length="4.67" shape="1434.33,306.73 1433.43,305.59 1432.61,305.26 1431.84,305.72 1431.14,306.98"/>
    </edge>
    <edge id=":10617402137_1" function="internal">
        <lane id=":10617402137_1_0" index="0" disallow="tram rail_urban rail rail_electric rail_fast ship container cable_car subway aircraft wheelchair scooter drone" speed="6.60" length="7.19" shape="1426.77,301.96 1428.56,302.61 1429.88,303.66 1430.74,305.12 1431.14,306.98"/>
    </edge>
    <edge id=":11484459104_0" function="internal">
        <lane id=":11484459104_0_0" index="0" disallow="tram rail_urban rail rail_electric rail_fast ship container cable_car subway aircraft wheelchair scooter drone" speed="5.72" length="9.20" shape="1253.42,204.36 1250.91,203.25 1249.78,201.78 1250.01,199.93 1251.62,197.71"/>
    </edge>
    <edge id=":11484459104_1" function="internal">
        <lane id=":11484459104_1_0" index="0" disallow="tram rail_urban rail rail_electric rail_fast ship container cable_car subway aircraft wheelchair scooter drone" speed="3.65" length="4.67" shape="1253.42,204.36 1252.05,204.79 1251.44,205.45 1251.60,206.33 1252.54,207.43"/>
    </edge>
    <edge id=":11484459104_2" function="internal">
        <lane id=":11484459104_2_0" index="0" disallow="tram rail_urban rail rail_electric rail_fast ship container cable_car subway aircraft wheelchair scooter drone" speed="8.19" length="11.81" shape="1241.64,209.14 1243.27,207.49 1245.63,206.66 1248.72,206.64 1252.54,207.43"/>
    </edge>
    <edge id=":11484459104_3" function="internal">
        <lane id=":11484459104_3_0" index="0" disallow="tram rail_urban rail rail_electric rail_fast ship container cable_car subway aircraft wheelchair scooter drone" speed="27.78" length="15.23" shape="1241.64,209.14 1244.14,205.40 1246.16,203.06 1248.41,200.91 1251.62,197.71"/>
        <lane id=":11484459104_3_1" index="1" disallow="tram rail_urban rail rail_electric rail_fast ship container cable_car subway aircraft wheelchair scooter drone" speed="27.78" length="15.23" shape="1239.26,206.89 1241.78,203.16 1243.81,200.84 1246.08,198.70 1249.30,195.51"/>
    </edge>
    <edge id=":11484459106_0" function="internal">
        <lane id=":11484459106_0_0" index="0" disallow="tram rail_urban rail rail_electric rail_fast ship container cable_car subway aircraft wheelchair scooter drone" speed="3.65" length="4.67" shape="1276.49,204.07 1277.45,202.98 1277.63,202.11 1277.03,201.44 1275.67,200.97"/>
    </edge>
    <edge id=":1781434731_0" function="internal">
        <lane id=":1781434731_0_0" index="0" disallow="tram rail_urban rail rail_electric rail_fast ship container cable_car subway aircraft wheelchair scooter drone" speed="6.42" length="9.07" shape="1157.23,227.40 1154.75,227.21 1152.96,226.25 1151.86,224.54 1151.45,222.06"/>
    </edge>
    <edge id=":1781434731_1" function="internal">
        <lane id=":1781434731_1_0" index="0" disallow="tram rail_urban rail rail_electric rail_fast ship container cable_car subway aircraft wheelchair scooter drone" speed="27.78" length="14.72" shape="1157.23,227.40 1152.92,227.67 1149.96,227.79 1147.00,227.77 1142.69,227.63"/>
        <lane id=":1781434731_1_1" index="1" disallow="tram rail_urban rail rail_electric rail_fast ship container cable_car subway aircraft wheelchair scooter drone" speed="27.78" length="14.72" shape="1157.44,230.59 1153.04,230.87 1150.01,230.99 1146.99,230.97 1142.58,230.83"/>
    </edge>
    <edge id=":1781434731_3" function="internal">
        <lane id=":1781434731_3_0" index="0" disallow="tram rail_urban rail rail_electric rail_fast ship container cable_car subway aircraft wheelchair scooter drone" speed="6.39" length="9.04" shape="1148.25,222.13 1147.95,224.61 1146.92,226.35 1145.17,227.36 1142.69,227.63"/>
    </edge>
    <edge id=":1781434731_4" function="internal">
        <lane id=":1781434731_4_0" index="0" disallow="tram rail_urban rail rail_electric rail_fast ship container cable_car subway aircraft wheelchair scooter drone" speed="3.65" length="4.67" shape="1148.25,222.13 1149.07,223.32 1149.88,223.70 1150.67,223.28 1151.45,222.06"/>
    </edge>
    <edge id=":1781434741_0" function="internal">
        <lane id=":1781434741_0_0" index="0" disallow="tram rail_urban rail rail_electric rail_fast ship container cable_car subway aircraft wheelchair scooter drone" speed="9.71" length="6.65" shape="1220.97,250.38 1222.77,250.61 1223.83,251.41 1224.78,252.59 1226.24,253.96"/>
        <lane id=":1781434741_0_1" index="1" disallow="tram rail_urban rail rail_electric rail_fast ship container cable_car subway aircraft wheelchair scooter drone" speed="10.27" length="7.47" shape="1220.97,250.38 1223.20,250.17 1224.80,250.02 1226.27,250.30 1228.12,251.36"/>
    </edge>
    <edge id=":1781434741_2" function="internal">
        <lane id=":1781434741_2_0" index="0" disallow="tram rail_urban rail rail_electric rail_fast ship container cable_car subway aircraft wheelchair scooter drone" speed="10.00" length="7.76" shape="1220.97,250.38 1223.45,250.19 1225.14,249.73 1226.61,248.77 1228.41,247.05"/>
        <lane id=":1781434741_2_1" index="1" disallow="tram rail_urban rail rail_electric rail_fast ship container cable_car subway aircraft wheelchair scooter drone" speed="9.13" length="7.76" shape="1220.83,247.18 1222.86,246.97 1224.21,246.48 1225.38,245.56 1226.84,244.08"/>
    </edge>
    <edge id=":1781434753_0" function="internal">
        <lane id=":1781434753_0_0" index="0" disallow="tram rail_urban rail rail_electric rail_fast ship container cable_car subway aircraft wheelchair scooter drone" speed="6.23" length="9.05" shape="1239.48,184.91 1237.21,186.03 1235.22,186.09 1233.50,185.08 1232.05,183.01"/>
    </edge>
    <edge id=":1781434753_1" function="internal">
        <lane id=":1781434753_1_0" index="0" disallow="tram rail_urban rail rail_electric rail_fast ship container cable_car subway aircraft wheelchair scooter drone" speed="27.78" length="14.41" shape="1239.48,184.91 1227.65,193.18"/>
        <lane id=":1781434753_1_1" index="1" disallow="tram rail_urban rail rail_electric rail_fast ship container cable_car subway aircraft wheelchair scooter drone" speed="27.78" length="14.41" shape="1241.29,187.55 1229.51,195.79"/>
    </edge>
    <edge id=":1781434753_3" function="internal">
        <lane id=":1781434753_3_0" index="0" disallow="tram rail_urban rail rail_electric rail_fast ship container cable_car subway aircraft wheelchair scooter drone" speed="7.14" length="9.80" shape="1229.19,184.45 1230.16,187.10 1230.22,189.44 1229.39,191.47 1227.65,193.18"/>
    </edge>
    <edge id=":1781434753_4" function="internal">
        <lane id=":1781434753_4_0" index="0" disallow="tram rail_urban rail rail_electric rail_fast ship container cable_car subway aircraft wheelchair scooter drone" speed="3.65" length="4.67" shape="1229.19,184.45 1230.44,185.16 1231.34,185.16 1231.87,184.44 1232.05,183.01"/>
    </edge>
    <edge id=":2493123087_0" function="internal">
        <lane id=":2493123087_0_0" index="0" disallow="tram rail_urban rail rail_electric rail_fast ship container cable_car subway aircraft wheelchair scooter drone" speed="3.65" length="4.67" shape="762.49,-1.43 761.31,-2.25 760.42,-2.32 759.82,-1.65 759.52,-0.24"/>
    </edge>
    <edge id=":2845856790_0" function="internal">
        <lane id=":2845856790_0_0" index="0" disallow="tram rail_urban rail rail_electric rail_fast ship container cable_car subway aircraft wheelchair scooter drone" speed="3.65" length="4.67" shape="1184.70,0.73 1184.14,-0.60 1183.43,-1.14 1182.57,-0.90 1181.56,0.13"/>
    </edge>
    <edge id=":2845856799_0" function="internal">
        <lane id=":2845856799_0_0" index="0" disallow="tram rail_urban rail rail_electric rail_fast ship container cable_car subway aircraft wheelchair scooter drone" speed="13.89" length="14.19" shape="1056.26,34.94 1042.07,35.09"/>
    </edge>
    <edge id=":2845856799_1" function="internal">
        <lane id=":2845856799_1_0" index="0" disallow="tram rail_urban rail rail_electric rail_fast ship container cable_car subway aircraft wheelchair scooter drone" speed="8.00" length="3.89" shape="1056.26,34.94 1052.43,35.61"/>
    </edge>
    <edge id=":2845856799_2" function="internal">
        <lane id=":2845856799_2_0" index="0" disallow="tram rail_urban rail rail_electric rail_fast ship container cable_car subway aircraft wheelchair scooter drone" speed="3.65" length="1.44" shape="1056.26,34.94 1055.09,35.78"/>
    </edge>
    <edge id=":2845856799_9" function="internal">
        <lane id=":2845856799_9_0" index="0" disallow="tram rail_urban rail rail_electric rail_fast ship container cable_car subway aircraft wheelchair scooter drone" speed="8.00" length="10.31" shape="1052.43,35.61 1049.73,37.35 1048.17,40.16 1047.75,44.03"/>
    </edge>
    <edge id=":2845856799_10" function="internal">
        <lane id=":2845856799_10_0" index="0" disallow="tram rail_urban rail rail_electric rail_fast ship container cable_car subway aircraft wheelchair scooter drone" speed="3.65" length="3.23" shape="1055.09,35.78 1054.71,36.59 1055.14,37.38 1056.36,38.14"/>
    </edge>
    <edge id=":2845856799_3" function="internal">
        <lane id=":2845856799_3_0" index="0" disallow="tram rail_urban rail rail_electric rail_fast ship container cable_car subway aircraft wheelchair scooter drone" speed="6.50" length="9.03" shape="1050.95,43.92 1051.22,41.46 1052.21,39.67 1053.92,38.57 1056.36,38.14"/>
    </edge>
    <edge id=":2845856799_4" function="internal">
        <lane id=":2845856799_4_0" index="0" disallow="tram rail_urban rail rail_electric rail_fast ship container cable_car subway aircraft wheelchair scooter drone" speed="8.12" length="14.14" shape="1050.95,43.92 1050.29,40.09 1048.58,37.35 1045.85,35.68 1042.07,35.09"/>
    </edge>
    <edge id=":2845856799_5" function="internal">
        <lane id=":2845856799_5_0" index="0" disallow="tram rail_urban rail rail_electric rail_fast ship container cable_car subway aircraft wheelchair scooter drone" speed="3.65" length="4.67" shape="1050.95,43.92 1050.11,42.75 1049.30,42.37 1048.51,42.80 1047.75,44.03"/>
    </edge>
    <edge id=":2845856799_6" function="internal">
        <lane id=":2845856799_6_0" index="0" disallow="tram rail_urban rail rail_electric rail_fast ship container cable_car subway aircraft wheelchair scooter drone" speed="6.65" length="9.15" shape="1042.03,38.29 1044.46,38.67 1046.23,39.76 1047.32,41.54 1047.75,44.03"/>
    </edge>
    <edge id=":2845856799_7" function="internal">
        <lane id=":2845856799_7_0" index="0" disallow="tram rail_urban rail rail_electric rail_fast ship container cable_car subway aircraft wheelchair scooter drone" speed="13.89" length="14.33" shape="1042.03,38.29 1056.36,38.14"/>
    </edge>
    <edge id=":2845856799_8" function="internal">
        <lane id=":2845856799_8_0" index="0" disallow="tram rail_urban rail rail_electric rail_fast ship container cable_car subway aircraft wheelchair scooter drone" speed="3.65" length="1.44" shape="1042.03,38.29 1043.24,37.50"/>
    </edge>
    <edge id=":2845856799_11" function="internal">
        <lane id=":2845856799_11_0" index="0" disallow="tram rail_urban rail rail_electric rail_fast ship container cable_car subway aircraft wheelchair scooter drone" speed="3.65" length="3.23" shape="1043.24,37.50 1043.65,36.71 1043.26,35.90 1042.07,35.09"/>
    </edge>
    <edge id=":2845856813_0" function="internal">
        <lane id=":2845856813_0_0" index="0" disallow="tram rail_urban rail rail_electric rail_fast ship container cable_car subway aircraft wheelchair scooter drone" speed="6.33" length="9.04" shape="1287.56,72.47 1285.23,73.39 1283.22,73.30 1281.53,72.21 1280.16,70.11"/>
    </edge>
    <edge id=":2845856813_1" function="internal">
        <lane id=":2845856813_1_0" index="0" disallow="tram rail_urban rail rail_electric rail_fast ship container cable_car subway aircraft wheelchair scooter drone" speed="8.37" length="14.29" shape="1287.56,72.47 1284.38,74.88 1282.58,77.69 1282.16,80.90 1283.11,84.50"/>
    </edge>
    <edge id=":2845856813_2" function="internal">
        <lane id=":2845856813_2_0" index="0" disallow="tram rail_urban rail rail_electric rail_fast ship container cable_car subway aircraft wheelchair scooter drone" speed="3.65" length="4.67" shape="1287.56,72.47 1286.92,73.76 1286.97,74.65 1287.71,75.15 1289.15,75.25"/>
    </edge>
    <edge id=":2845856813_3" function="internal">
        <lane id=":2845856813_3_0" index="0" disallow="tram rail_urban rail rail_electric rail_fast ship container cable_car subway aircraft wheelchair scooter drone" speed="6.95" length="9.54" shape="1286.05,83.24 1285.43,80.87 1285.75,78.75 1286.98,76.87 1289.15,75.25"/>
    </edge>
    <edge id=":2845856813_4" function="internal">
        <lane id=":2845856813_4_0" index="0" disallow="tram rail_urban rail rail_electric rail_fast ship container cable_car subway aircraft wheelchair scooter drone" speed="13.89" length="14.38" shape="1286.05,83.24 1280.16,70.11"/>
    </edge>
    <edge id=":2845856813_5" function="internal">
        <lane id=":2845856813_5_0" index="0" disallow="tram rail_urban rail rail_electric rail_fast ship container cable_car subway aircraft wheelchair scooter drone" speed="3.65" length="1.44" shape="1286.05,83.24 1284.84,82.45"/>
    </edge>
    <edge id=":2845856813_9" function="internal">
        <lane id=":2845856813_9_0" index="0" disallow="tram rail_urban rail rail_electric rail_fast ship container cable_car subway aircraft wheelchair scooter drone" speed="3.65" length="3.23" shape="1284.84,82.45 1283.94,82.40 1283.37,83.08 1283.11,84.50"/>
    </edge>
    <edge id=":2845856813_6" function="internal">
        <lane id=":2845856813_6_0" index="0" disallow="tram rail_urban rail rail_electric rail_fast ship container cable_car subway aircraft wheelchair scooter drone" speed="13.89" length="14.30" shape="1277.26,71.46 1283.11,84.50"/>
    </edge>
    <edge id=":2845856813_7" function="internal">
        <lane id=":2845856813_7_0" index="0" disallow="tram rail_urban rail rail_electric rail_fast ship container cable_car subway aircraft wheelchair scooter drone" speed="7.86" length="4.03" shape="1277.26,71.46 1279.46,74.83"/>
    </edge>
    <edge id=":2845856813_8" function="internal">
        <lane id=":2845856813_8_0" index="0" disallow="tram rail_urban rail rail_electric rail_fast ship container cable_car subway aircraft wheelchair scooter drone" speed="3.65" length="1.44" shape="1277.26,71.46 1278.49,72.21"/>
    </edge>
    <edge id=":2845856813_10" function="internal">
        <lane id=":2845856813_10_0" index="0" disallow="tram rail_urban rail rail_electric rail_fast ship container cable_car subway aircraft wheelchair scooter drone" speed="7.86" length="10.49" shape="1279.46,74.83 1282.17,76.59 1285.40,76.73 1289.15,75.25"/>
    </edge>
    <edge id=":2845856813_11" function="internal">
        <lane id=":2845856813_11_0" index="0" disallow="tram rail_urban rail rail_electric rail_fast ship container cable_car subway aircraft wheelchair scooter drone" speed="3.65" length="3.23" shape="1278.49,72.21 1279.38,72.24 1279.94,71.54 1280.16,70.11"/>
    </edge>
    <edge id=":2845856814_0" function="internal">
        <lane id=":2845856814_0_0" index="0" disallow="tram rail_urban rail rail_electric rail_fast ship container cable_car subway aircraft wheelchair scooter drone" speed="3.65" length="4.67" shape="1217.20,90.32 1215.88,89.73 1214.99,89.81 1214.53,90.58 1214.48,92.02"/>
    </edge>
    <edge id=":2845856820_0" function="internal">
        <lane id=":2845856820_0_0" index="0" disallow="tram rail_urban rail rail_electric rail_fast ship container cable_car subway aircraft wheelchair scooter drone" speed="13.89" length="15.22" shape="1048.38,150.48 1048.77,165.69"/>
    </edge>
    <edge id=":2845856820_1" function="internal">
        <lane id=":2845856820_1_0" index="0" disallow="tram rail_urban rail rail_electric rail_fast ship container cable_car subway aircraft wheelchair scooter drone" speed="9.54" length="3.89" shape="1048.38,150.48 1048.93,153.93 1049.12,154.27"/>
    </edge>
    <edge id=":2845856820_2" function="internal">
        <lane id=":2845856820_2_0" index="0" disallow="tram rail_urban rail rail_electric rail_fast ship container cable_car subway aircraft wheelchair scooter drone" speed="3.65" length="1.44" shape="1048.38,150.48 1049.17,151.69"/>
    </edge>
    <edge id=":2845856820_9" function="internal">
        <lane id=":2845856820_9_0" index="0" disallow="tram rail_urban rail rail_electric rail_fast ship container cable_car subway aircraft wheelchair scooter drone" speed="9.54" length="11.39" shape="1049.12,154.27 1050.65,156.88 1053.56,159.35 1057.66,161.32"/>
    </edge>
    <edge id=":2845856820_10" function="internal">
        <lane id=":2845856820_10_0" index="0" disallow="tram rail_urban rail rail_electric rail_fast ship container cable_car subway aircraft wheelchair scooter drone" speed="3.65" length="3.23" shape="1049.17,151.69 1049.96,152.10 1050.77,151.71 1051.58,150.52"/>
    </edge>
    <edge id=":2845856820_3" function="internal">
        <lane id=":2845856820_3_0" index="0" disallow="tram rail_urban rail rail_electric rail_fast ship container cable_car subway aircraft wheelchair scooter drone" speed="8.29" length="11.32" shape="1058.76,158.32 1055.60,156.83 1053.34,155.03 1052.00,152.93 1051.58,150.52"/>
    </edge>
    <edge id=":2845856820_4" function="internal">
        <lane id=":2845856820_4_0" index="0" disallow="tram rail_urban rail rail_electric rail_fast ship container cable_car subway aircraft wheelchair scooter drone" speed="7.48" length="16.05" shape="1058.76,158.32 1054.17,157.32 1050.97,158.21 1049.17,161.00 1048.77,165.69"/>
    </edge>
    <edge id=":2845856820_5" function="internal">
        <lane id=":2845856820_5_0" index="0" disallow="tram rail_urban rail rail_electric rail_fast ship container cable_car subway aircraft wheelchair scooter drone" speed="3.65" length="4.67" shape="1058.76,158.32 1057.36,158.65 1056.71,159.27 1056.81,160.15 1057.66,161.32"/>
    </edge>
    <edge id=":2845856820_6" function="internal">
        <lane id=":2845856820_6_0" index="0" disallow="tram rail_urban rail rail_electric rail_fast ship container cable_car subway aircraft wheelchair scooter drone" speed="5.81" length="9.14" shape="1051.97,165.52 1052.19,162.85 1053.22,161.26 1055.04,160.75 1057.66,161.32"/>
    </edge>
    <edge id=":2845856820_7" function="internal">
        <lane id=":2845856820_7_0" index="0" disallow="tram rail_urban rail rail_electric rail_fast ship container cable_car subway aircraft wheelchair scooter drone" speed="13.89" length="15.01" shape="1051.97,165.52 1051.58,150.52"/>
    </edge>
    <edge id=":2845856820_8" function="internal">
        <lane id=":2845856820_8_0" index="0" disallow="tram rail_urban rail rail_electric rail_fast ship container cable_car subway aircraft wheelchair scooter drone" speed="3.65" length="1.44" shape="1051.97,165.52 1051.10,164.36"/>
    </edge>
    <edge id=":2845856820_11" function="internal">
        <lane id=":2845856820_11_0" index="0" disallow="tram rail_urban rail rail_electric rail_fast ship container cable_car subway aircraft wheelchair scooter drone" speed="3.65" length="3.23" shape="1051.10,164.36 1050.28,164.01 1049.51,164.45 1048.77,165.69"/>
    </edge>
    <edge id=":2845856821_0" function="internal">
        <lane id=":2845856821_0_0" index="0" disallow="tram rail_urban rail rail_electric rail_fast ship container cable_car subway aircraft wheelchair scooter drone" speed="8.42" length="11.08" shape="1012.45,148.60 1011.64,150.90 1010.03,152.78 1007.63,154.24 1004.44,155.29"/>
    </edge>
    <edge id=":2845856821_1" function="internal">
        <lane id=":2845856821_1_0" index="0" disallow="tram rail_urban rail rail_electric rail_fast ship container cable_car subway aircraft wheelchair scooter drone" speed="13.89" length="14.69" shape="1012.45,148.60 1010.65,163.18"/>
    </edge>
    <edge id=":2845856821_2" function="internal">
        <lane id=":2845856821_2_0" index="0" disallow="tram rail_urban rail rail_electric rail_fast ship container cable_car subway aircraft wheelchair scooter drone" speed="3.65" length="1.44" shape="1012.45,148.60 1013.04,149.92"/>
    </edge>
    <edge id=":2845856821_9" function="internal">