<?xml version="1.0" encoding="UTF-8"?>

<!-- generated on 2024-12-24 20:26:47.127823 by osmWebWizard.py v1_21_0+0000-d7b3b481c43
<configuration>
    <net-file value="C:\Users\Varun\AppData\Roaming\Microsoft\Windows\Start Menu\Programs\SUMO\2024-12-24-20-26-40\osm.net.xml.gz"/>
    <output-trip-file value="C:\Users\Varun\AppData\Roaming\Microsoft\Windows\Start Menu\Programs\SUMO\2024-12-24-20-26-40\osm.truck.trips.xml"/>
    <route-file value="C:\Users\Varun\AppData\Roaming\Microsoft\Windows\Start Menu\Programs\SUMO\2024-12-24-20-26-40\osm.truck.rou.xml"/>
    <prefix value="truck"/>
    <trip-attributes value="departLane=&quot;best&quot;"/>
    <fringe-start-attributes value="departSpeed=&quot;max&quot;"/>
    <vehicle-class value="truck"/>
    <fringe-factor value="5"/>
    <vclass value="truck"/>
    <via-edge-types value="highway.motorway,highway.motorway_link,highway.trunk_link,highway.primary_link,highway.secondary_link,highway.tertiary_link"/>
    <min-distance value="600.0"/>
    <min-distance.fringe value="10.0"/>
    <remove-loops value="True"/>
    <validate value="True"/>
    <insertion-density value="8.0"/>
</configuration>
-->

<!-- generated on 2024-12-24 20:26:47 by Eclipse SUMO duarouter Version 1.21.0
<duarouterConfiguration xmlns:xsi="http://www.w3.org/2001/XMLSchema-instance" xsi:noNamespaceSchemaLocation="http://sumo.dlr.de/xsd/duarouterConfiguration.xsd">

    <input>
        <net-file value="C:\Users\Varun\AppData\Roaming\Microsoft\Windows\Start Menu\Programs\SUMO\2024-12-24-20-26-40\osm.net.xml.gz"/>
        <route-files value="C:\Users\Varun\AppData\Roaming\Microsoft\Windows\Start Menu\Programs\SUMO\2024-12-24-20-26-40\osm.truck.trips.xml"/>
    </input>

    <output>
        <output-file value="C:\Users\Varun\AppData\Roaming\Microsoft\Windows\Start Menu\Programs\SUMO\2024-12-24-20-26-40\osm.truck.trips.xml.tmp"/>
        <alternatives-output value="NUL"/>
        <write-trips value="true"/>
    </output>

    <processing>
        <remove-loops value="true"/>
    </processing>

    <time>
        <begin value="0.0"/>
        <end value="3600.0"/>
    </time>

    <report>
        <no-warnings value="true"/>
        <ignore-errors value="true"/>
        <no-step-log value="true"/>
    </report>

</duarouterConfiguration>
-->

<routes xmlns:xsi="http://www.w3.org/2001/XMLSchema-instance" xsi:noNamespaceSchemaLocation="http://sumo.dlr.de/xsd/routes_file.xsd">
    
    <vType id="truck_truck" vClass="truck" accel="1.0" decel="3.0" sigma="0.5" maxSpeed="20.0" length="8.0" 
       lcStrategic="0.8" lcCooperative="0.5" lcSpeedGain="0.7" lcKeepRight="0.5" />

   <trip id="truck0" type="truck_truck" depart="0.00" departLane="best" from="280676694#1" to="280472297#1"/>
    <trip id="truck1" type="truck_truck" depart="10.80" departLane="best" from="-280680768" to="280680647#1"/>
    <trip id="truck2" type="truck_truck" depart="21.60" departLane="best" departSpeed="max" from="376558262" to="280676563#4"/>
    <trip id="truck3" type="truck_truck" depart="32.40" departLane="best" from="-280680646#8" to="280676602"/>
    <trip id="truck4" type="truck_truck" depart="43.21" departLane="best" from="280680837#2" to="-241720911#10"/>
    <trip id="truck5" type="truck_truck" depart="54.01" departLane="best" from="280680836" to="-280680642#0"/>
    <trip id="truck6" type="truck_truck" depart="64.81" departLane="best" from="280475189#0" to="874502244"/>
    <trip id="truck7" type="truck_truck" depart="75.61" departLane="best" from="-280680916#2" to="280676563#5"/>
    <trip id="truck8" type="truck_truck" depart="86.41" departLane="best" from="-280676563#10" to="-280680648#2"/>
    <trip id="truck9" type="truck_truck" depart="97.21" departLane="best" from="-280680916#2" to="-280680642#1"/>
    <trip id="truck10" type="truck_truck" depart="108.01" departLane="best" from="-280676716#0" to="-280680923#1"/>
    <trip id="truck11" type="truck_truck" depart="118.81" departLane="best" from="-280676558#7" to="280680637#5"/>
    <trip id="truck12" type="truck_truck" depart="129.62" departLane="best" from="-280680647#7" to="-280472285#0"/>
    <trip id="truck13" type="truck_truck" depart="140.42" departLane="best" from="280676757#1" to="-376558271#0"/>
    <trip id="truck14" type="truck_truck" depart="151.22" departLane="best" from="-376558271#8" to="874993006#5"/>
    <trip id="truck15" type="truck_truck" depart="162.02" departLane="best" from="280676604#1" to="881934737#7"/>
    <trip id="truck16" type="truck_truck" depart="172.82" departLane="best" from="-280676563#8" to="-280475177"/>
    <trip id="truck17" type="truck_truck" depart="183.62" departLane="best" from="-280676632" to="280676661#2"/>
    <trip id="truck18" type="truck_truck" depart="194.42" departLane="best" from="-280676634#0" to="-874502240"/>
    <trip id="truck19" type="truck_truck" depart="205.23" departLane="best" from="-280680808#1" to="280676683#1"/>
    <trip id="truck20" type="truck_truck" depart="216.03" departLane="best" from="301350260" to="280680869#0"/>
    <trip id="truck21" type="truck_truck" depart="226.83" departLane="best" from="-280680822#1" to="280676552#2"/>
    <trip id="truck22" type="truck_truck" depart="237.63" departLane="best" from="135955892#2" to="280676552#8"/>
    <trip id="truck23" type="truck_truck" depart="248.43" departLane="best" from="-280680872#1" to="280676602"/>
    <trip id="truck24" type="truck_truck" depart="259.23" departLane="best" from="-280680647#7" to="376558271#0"/>
    <trip id="truck25" type="truck_truck" depart="270.03" departLane="best" from="280680916#1" to="-280676558#4"/>
    <trip id="truck26" type="truck_truck" depart="280.84" departLane="best" from="-280680656" to="-280676785#3"/>
    <trip id="truck27" type="truck_truck" depart="291.64" departLane="best" from="135955892#12" to="280680795#3"/>
    <trip id="truck28" type="truck_truck" depart="302.44" departLane="best" from="280680837#0" to="-280676806#5"/>
    <trip id="truck29" type="truck_truck" depart="313.24" departLane="best" from="280680671#0" to="-280676795#3"/>
    <trip id="truck30" type="truck_truck" depart="324.04" departLane="best" from="-874599898" to="-280676587"/>
    <trip id="truck31" type="truck_truck" depart="334.84" departLane="best" from="-376558271#7" to="-280680877#0"/>
    <trip id="truck32" type="truck_truck" depart="345.64" departLane="best" from="-873382994#0" to="-280680775#2"/>
    <trip id="truck33" type="truck_truck" depart="356.44" departLane="best" from="280676558#2" to="-280475181#2"/>
    <trip id="truck34" type="truck_truck" depart="367.25" departLane="best" from="874502240" to="385697442#17"/>
    <trip id="truck36" type="truck_truck" depart="388.85" departLane="best" from="-376558271#6" to="280676552#2"/>
    <trip id="truck37" type="truck_truck" depart="399.65" departLane="best" from="-280680743" to="280680795#3"/>
    <trip id="truck38" type="truck_truck" depart="410.45" departLane="best" from="-874993006#2" to="873382994#1"/>
    <trip id="truck39" type="truck_truck" depart="421.25" departLane="best" from="-873382994#1" to="874993006#6"/>
    <trip id="truck40" type="truck_truck" depart="432.05" departLane="best" from="-280676683#1" to="-280680808#0"/>
    <trip id="truck41" type="truck_truck" depart="442.86" departLane="best" from="280676552#5" to="280680711"/>
    <trip id="truck42" type="truck_truck" depart="453.66" departLane="best" from="241720911#7" to="280680896#0"/>
    <trip id="truck43" type="truck_truck" depart="464.46" departLane="best" from="-280680648#5" to="-280676660#12"/>
    <trip id="truck44" type="truck_truck" depart="475.26" departLane="best" from="-873347097#1" to="280676579#0"/>
    <trip id="truck45" type="truck_truck" depart="486.06" departLane="best" from="-280472324#1" to="385697442#6"/>
    <trip id="truck46" type="truck_truck" depart="496.86" departLane="best" from="-280680837#0" to="280680733#0"/>
    <trip id="truck47" type="truck_truck" depart="507.66" departLane="best" from="309136914#1" to="280680927#1"/>
    <trip id="truck48" type="truck_truck" depart="518.47" departLane="best" from="280676757#0" to="-241720911#11"/>
    <trip id="truck49" type="truck_truck" depart="529.27" departLane="best" from="280676785#3" to="449394146"/>
    <trip id="truck50" type="truck_truck" depart="540.07" departLane="best" from="280680757" to="280676660#10"/>
    <trip id="truck51" type="truck_truck" depart="550.87" departLane="best" from="-873382994#1" to="-280680775#0"/>
    <trip id="truck53" type="truck_truck" depart="572.47" departLane="best" from="280680710" to="280676558#1"/>
    <trip id="truck54" type="truck_truck" depart="583.27" departLane="best" from="-874502235" to="241720911#15"/>
    <trip id="truck55" type="truck_truck" depart="594.07" departLane="best" from="376558267#3" to="280676552#2"/>
    <trip id="truck56" type="truck_truck" depart="604.88" departLane="best" from="280680884#0" to="280676570"/>
    <trip id="truck57" type="truck_truck" depart="615.68" departLane="best" departSpeed="max" from="376558267#0" to="-280680642#1"/>
    <trip id="truck58" type="truck_truck" depart="626.48" departLane="best" from="-280680694" to="-280676604#1"/>
    <trip id="truck59" type="truck_truck" depart="637.28" departLane="best" from="280680917#1" to="874502248#1"/>
    <trip id="truck61" type="truck_truck" depart="658.88" departLane="best" from="280680808#0" to="-280676627"/>
    <trip id="truck62" type="truck_truck" depart="669.68" departLane="best" from="874502248#5" to="280475177"/>
    <trip id="truck63" type="truck_truck" depart="680.49" departLane="best" from="449394146" to="-280676660#0"/>
    <trip id="truck64" type="truck_truck" depart="691.29" departLane="best" from="280676660#5" to="280472262#2"/>
    <trip id="truck65" type="truck_truck" depart="702.09" departLane="best" from="-280680927#3" to="280676563#5"/>
    <trip id="truck66" type="truck_truck" depart="712.89" departLane="best" from="280680711" to="-280676795#0"/>
    <trip id="truck67" type="truck_truck" depart="723.69" departLane="best" from="280676795#0" to="280680867"/>
    <trip id="truck68" type="truck_truck" depart="734.49" departLane="best" from="-280680825#0" to="-869030128"/>
    <trip id="truck69" type="truck_truck" depart="745.29" departLane="best" from="-376558271#7" to="280680803#1"/>
    <trip id="truck70" type="truck_truck" depart="756.10" departLane="best" from="-280676660#8" to="280680793#1"/>
    <trip id="truck71" type="truck_truck" depart="766.90" departLane="best" from="376558267#3" to="280676660#8"/>
    <trip id="truck72" type="truck_truck" depart="777.70" departLane="best" from="-280680810#1" to="280676552#5"/>
    <trip id="truck73" type="truck_truck" depart="788.50" departLane="best" from="280676757#1" to="1125366769"/>
    <trip id="truck74" type="truck_truck" depart="799.30" departLane="best" from="-874502248#1" to="-280680646#2"/>
    <trip id="truck75" type="truck_truck" depart="810.10" departLane="best" from="135955892#13" to="376558270#1"/>
    <trip id="truck76" type="truck_truck" depart="820.90" departLane="best" from="280680822#0" to="-280676734#1"/>
    <trip id="truck77" type="truck_truck" depart="831.70" departLane="best" from="-280676563#14" to="280472263#1"/>
    <trip id="truck78" type="truck_truck" depart="842.51" departLane="best" from="-280680682#0" to="135955892#14"/>
    <trip id="truck79" type="truck_truck" depart="853.31" departLane="best" from="280676757#3" to="-241720911#0"/>
    <trip id="truck80" type="truck_truck" depart="864.11" departLane="best" departSpeed="max" from="376558262" to="280676660#6"/>
    <trip id="truck81" type="truck_truck" depart="874.91" departLane="best" from="-280680690" to="280676680#1"/>
    <trip id="truck82" type="truck_truck" depart="885.71" departLane="best" from="280680775#1" to="280472285#2"/>
    <trip id="truck83" type="truck_truck" depart="896.51" departLane="best" from="-280676558#9" to="-280680795#0"/>
    <trip id="truck84" type="truck_truck" depart="907.31" departLane="best" from="280680757" to="-280680837#3"/>
    <trip id="truck85" type="truck_truck" depart="918.12" departLane="best" from="280680646#9" to="-280676558#1"/>
    <trip id="truck86" type="truck_truck" depart="928.92" departLane="best" from="280676604#1" to="280680638#6"/>
    <trip id="truck87" type="truck_truck" depart="939.72" departLane="best" from="-280680923#1" to="-241720911#0"/>
    <trip id="truck88" type="truck_truck" depart="950.52" departLane="best" from="-280680901#0" to="873347097#1"/>
    <trip id="truck89" type="truck_truck" depart="961.32" departLane="best" from="-874502241" to="-280472263#2"/>
    <trip id="truck90" type="truck_truck" depart="972.12" departLane="best" from="-280680869#1" to="-280676806#5"/>
    <trip id="truck91" type="truck_truck" depart="982.92" departLane="best" from="-376558271#8" to="-280676716#1"/>
    <trip id="truck93" type="truck_truck" depart="1004.53" departLane="best" from="280676661#3" to="280472263#0"/>
    <trip id="truck94" type="truck_truck" depart="1015.33" departLane="best" from="315946003#3" to="280676558#9"/>
    <trip id="truck95" type="truck_truck" depart="1026.13" departLane="best" from="-280475181#1" to="-280680923#0"/>
    <trip id="truck96" type="truck_truck" depart="1036.93" departLane="best" from="-280680768" to="-280680923#0"/>
    <trip id="truck97" type="truck_truck" depart="1047.73" departLane="best" from="-280680709" to="-280676563#12"/>
    <trip id="truck98" type="truck_truck" depart="1058.53" departLane="best" from="280676734#0" to="280680793#1"/>
    <trip id="truck99" type="truck_truck" depart="1069.33" departLane="best" from="241720911#6" to="-280676680#1"/>
    <trip id="truck100" type="truck_truck" depart="1080.14" departLane="best" from="280676563#12" to="-280680646#6"/>
    <trip id="truck101" type="truck_truck" depart="1090.94" departLane="best" from="280676728#0" to="280676660#12"/>
    <trip id="truck102" type="truck_truck" depart="1101.74" departLane="best" from="280680865#1" to="874502237"/>
    <trip id="truck103" type="truck_truck" depart="1112.54" departLane="best" from="-280676627" to="280472262#2"/>
    <trip id="truck104" type="truck_truck" depart="1123.34" departLane="best" from="-280680826#0" to="280676806#4"/>
    <trip id="truck105" type="truck_truck" depart="1134.14" departLane="best" from="280680896#3" to="280676634#2"/>
    <trip id="truck106" type="truck_truck" depart="1144.94" departLane="best" from="280680801#0" to="280680886#0"/>
    <trip id="truck107" type="truck_truck" depart="1155.75" departLane="best" from="-874502235" to="-280680916#2"/>
    <trip id="truck108" type="truck_truck" depart="1166.55" departLane="best" from="280472262#2" to="-280680877#2"/>
    <trip id="truck109" type="truck_truck" depart="1177.35" departLane="best" from="280680690" to="874502238"/>
    <trip id="truck110" type="truck_truck" depart="1188.15" departLane="best" from="-280680756#0" to="280680826#1"/>
    <trip id="truck111" type="truck_truck" depart="1198.95" departLane="best" from="280676552#0" to="135955892#4"/>
    <trip id="truck112" type="truck_truck" depart="1209.75" departLane="best" from="309136914#2" to="-280680682#0"/>
    <trip id="truck113" type="truck_truck" depart="1220.55" departLane="best" from="1125366769" to="280676660#4"/>
    <trip id="truck114" type="truck_truck" depart="1231.36" departLane="best" from="-280680923#0" to="-280472263#1"/>
    <trip id="truck115" type="truck_truck" depart="1242.16" departLane="best" from="-280676564" to="-280680646#9"/>
    <trip id="truck116" type="truck_truck" depart="1252.96" departLane="best" from="-280680642#0" to="-280680822#0"/>
    <trip id="truck117" type="truck_truck" depart="1263.76" departLane="best" from="-280680695#1" to="-280676660#2"/>
    <trip id="truck118" type="truck_truck" depart="1274.56" departLane="best" from="874502248#1" to="280472297#1"/>
    <trip id="truck119" type="truck_truck" depart="1285.36" departLane="best" from="-280680784" to="-280676602"/>
    <trip id="truck120" type="truck_truck" depart="1296.16" departLane="best" from="-280680637#0" to="-280680647#6"/>
    <trip id="truck121" type="truck_truck" depart="1306.96" departLane="best" from="-280676785#2" to="-241720911#2"/>
    <trip id="truck122" type="truck_truck" depart="1317.77" departLane="best" from="280680643#1" to="280676660#7"/>
    <trip id="truck123" type="truck_truck" depart="1328.57" departLane="best" from="280680927#0" to="280676563#3"/>
    <trip id="truck124" type="truck_truck" depart="1339.37" departLane="best" from="-280676795#3" to="-280475181#2"/>
    <trip id="truck125" type="truck_truck" depart="1350.17" departLane="best" from="-604213899#0" to="135955892#14"/>
    <trip id="truck126" type="truck_truck" depart="1360.97" departLane="best" from="-280680867" to="376558271#5"/>
    <trip id="truck127" type="truck_truck" depart="1371.77" departLane="best" from="-280475188#3" to="-280676670#1"/>
    <trip id="truck128" type="truck_truck" depart="1382.57" departLane="best" from="280676563#11" to="-280680815"/>
    <trip id="truck129" type="truck_truck" depart="1393.38" departLane="best" from="280680775#0" to="280676660#12"/>
    <trip id="truck130" type="truck_truck" depart="1404.18" departLane="best" from="-280472324#1" to="-874987215"/>
    <trip id="truck131" type="truck_truck" depart="1414.98" departLane="best" from="-280680642#0" to="-280680643#0"/>
    <trip id="truck133" type="truck_truck" depart="1436.58" departLane="best" from="-873545067" to="280676552#0"/>
    <trip id="truck134" type="truck_truck" depart="1447.38" departLane="best" from="280676728#0" to="376558271#2"/>
    <trip id="truck135" type="truck_truck" depart="1458.18" departLane="best" from="-280680795#3" to="280676660#5"/>
    <trip id="truck136" type="truck_truck" depart="1468.98" departLane="best" from="-869030128" to="241720911#17"/>
    <trip id="truck137" type="truck_truck" depart="1479.79" departLane="best" from="241720911#17" to="-280676563#11"/>
    <trip id="truck138" type="truck_truck" depart="1490.59" departLane="best" from="-280472324#1" to="-874502238"/>
    <trip id="truck139" type="truck_truck" depart="1501.39" departLane="best" from="280680884#1" to="280676563#4"/>
    <trip id="truck140" type="truck_truck" depart="1512.19" departLane="best" from="-280472324#1" to="280680739#1"/>
    <trip id="truck141" type="truck_truck" depart="1522.99" departLane="best" from="-241720911#13" to="-280676563#9"/>
    <trip id="truck142" type="truck_truck" depart="1533.79" departLane="best" from="-280680886#0" to="280680868#1"/>
    <trip id="truck143" type="truck_truck" depart="1544.59" departLane="best" from="280676806#3" to="280680898#1"/>
    <trip id="truck144" type="truck_truck" depart="1555.40" departLane="best" from="-280680795#3" to="241720911#19"/>
    <trip id="truck145" type="truck_truck" depart="1566.20" departLane="best" from="280680846#2" to="-280676558#0"/>
    <trip id="truck146" type="truck_truck" depart="1577.00" departLane="best" from="-376558271#8" to="280472263#0"/>
    <trip id="truck147" type="truck_truck" depart="1587.80" departLane="best" from="280676552#5" to="-873347095#1"/>
    <trip id="truck148" type="truck_truck" depart="1598.60" departLane="best" from="-280676806#3" to="-280680898#1"/>
    <trip id="truck149" type="truck_truck" depart="1609.40" departLane="best" from="280676558#12" to="385697442#18"/>
    <trip id="truck150" type="truck_truck" depart="1620.20" departLane="best" from="-874502242" to="-280680642#0"/>
    <trip id="truck151" type="truck_truck" depart="1631.01" departLane="best" from="280676660#8" to="280680648#6"/>
    <trip id="truck152" type="truck_truck" depart="1641.81" departLane="best" from="874993006#3" to="376558271#7"/>
    <trip id="truck153" type="truck_truck" depart="1652.61" departLane="best" from="280676558#3" to="-280680927#2"/>
    <trip id="truck154" type="truck_truck" depart="1663.41" departLane="best" from="-873347095#2" to="385697442#6"/>
    <trip id="truck155" type="truck_truck" depart="1674.21" departLane="best" from="280472262#2" to="280680853"/>
    <trip id="truck156" type="truck_truck" depart="1685.01" departLane="best" from="241720911#10" to="-280676670#0"/>
    <trip id="truck157" type="truck_truck" depart="1695.81" departLane="best" from="280676552#0" to="-280680884#0"/>
    <trip id="truck158" type="truck_truck" depart="1706.61" departLane="best" from="280676558#3" to="-280475189#2"/>
    <trip id="truck159" type="truck_truck" depart="1717.42" departLane="best" from="-280676806#4" to="-280680642#0"/>
    <trip id="truck160" type="truck_truck" depart="1728.22" departLane="best" from="-280676563#7" to="-280680648#4"/>
    <trip id="truck161" type="truck_truck" depart="1739.02" departLane="best" from="874502248#5" to="241720911#10"/>
    <trip id="truck162" type="truck_truck" depart="1749.82" departLane="best" from="280676627" to="280680917#0"/>
    <trip id="truck163" type="truck_truck" depart="1760.62" departLane="best" from="280680927#2" to="-874502245"/>
    <trip id="truck164" type="truck_truck" depart="1771.42" departLane="best" from="-280676558#12" to="-280676661#8"/>
    <trip id="truck165" type="truck_truck" depart="1782.22" departLane="best" from="280680927#0" to="-874502248#2"/>
    <trip id="truck166" type="truck_truck" depart="1793.03" departLane="best" from="280680642#2" to="376558270#1"/>
    <trip id="truck167" type="truck_truck" depart="1803.83" departLane="best" from="-280676664#0" to="-280475162"/>
    <trip id="truck168" type="truck_truck" depart="1814.63" departLane="best" from="-280680670" to="376558271#7"/>
    <trip id="truck169" type="truck_truck" depart="1825.43" departLane="best" from="376558267#1" to="280676806#4"/>
    <trip id="truck170" type="truck_truck" depart="1836.23" departLane="best" from="280680884#0" to="280676594"/>
    <trip id="truck171" type="truck_truck" depart="1847.03" departLane="best" from="280676694#1" to="873382995"/>
    <trip id="truck172" type="truck_truck" depart="1857.83" departLane="best" from="-280680695#0" to="280680886#2"/>
    <trip id="truck173" type="truck_truck" depart="1868.64" departLane="best" from="-280680795#0" to="280680813#1"/>
    <trip id="truck174" type="truck_truck" depart="1879.44" departLane="best" from="280680637#3" to="280680647#8"/>
    <trip id="truck175" type="truck_truck" depart="1890.24" departLane="best" from="280676664#1" to="376558270#1"/>
    <trip id="truck176" type="truck_truck" depart="1901.04" departLane="best" from="280680682#1" to="280676563#8"/>
    <trip id="truck177" type="truck_truck" depart="1911.84" departLane="best" from="280475181#0" to="376558271#7"/>
    <trip id="truck178" type="truck_truck" depart="1922.64" departLane="best" from="874502236" to="-280676661#6"/>
    <trip id="truck179" type="truck_truck" depart="1933.44" departLane="best" from="-280676627" to="-280680648#4"/>
    <trip id="truck180" type="truck_truck" depart="1944.24" departLane="best" from="-280680646#9" to="-280676558#0"/>
    <trip id="truck181" type="truck_truck" depart="1955.05" departLane="best" from="-280680813#0" to="-869030128"/>
    <trip id="truck182" type="truck_truck" depart="1965.85" departLane="best" from="-280676661#2" to="869030154"/>
    <trip id="truck183" type="truck_truck" depart="1976.65" departLane="best" from="280680711" to="280676683#1"/>
    <trip id="truck184" type="truck_truck" depart="1987.45" departLane="best" from="-873347095#2" to="280676594"/>
    <trip id="truck185" type="truck_truck" depart="1998.25" departLane="best" from="-280680916#2" to="-874502248#2"/>
    <trip id="truck186" type="truck_truck" depart="2009.05" departLane="best" from="-873347095#4" to="280680896#2"/>
    <trip id="truck187" type="truck_truck" depart="2019.85" departLane="best" from="-280676594" to="280680637#6"/>
    <trip id="truck188" type="truck_truck" depart="2030.66" departLane="best" from="-280680896#1" to="-376558271#2"/>
    <trip id="truck189" type="truck_truck" depart="2041.46" departLane="best" from="-280676558#2" to="280680761"/>
    <trip id="truck190" type="truck_truck" depart="2052.26" departLane="best" from="-280676664#1" to="376558270#1"/>
    <trip id="truck192" type="truck_truck" depart="2073.86" departLane="best" from="-280680695#0" to="-280676757#3"/>
    <trip id="truck193" type="truck_truck" depart="2084.66" departLane="best" from="280676773#2" to="280472262#2"/>
    <trip id="truck194" type="truck_truck" depart="2095.46" departLane="best" from="-280676757#3" to="-280475188#2"/>
    <trip id="truck195" type="truck_truck" depart="2106.27" departLane="best" from="-280680710" to="-280472299#0"/>
    <trip id="truck196" type="truck_truck" depart="2117.07" departLane="best" from="280680733#0" to="135955892#14"/>
    <trip id="truck197" type="truck_truck" depart="2127.87" departLane="best" from="-280676627" to="241720911#21"/>
    <trip id="truck198" type="truck_truck" depart="2138.67" departLane="best" from="-280680638#3" to="166692081#0"/>
    <trip id="truck199" type="truck_truck" depart="2149.47" departLane="best" from="-376558271#3" to="-280676558#6"/>
    <trip id="truck200" type="truck_truck" depart="2160.27" departLane="best" from="-280676558#10" to="280680768"/>
    <trip id="truck201" type="truck_truck" depart="2171.07" departLane="best" from="-873347095#4" to="-280676579#0"/>
    <trip id="truck202" type="truck_truck" depart="2181.87" departLane="best" from="-280680917#1" to="874987212"/>
    <trip id="truck203" type="truck_truck" depart="2192.68" departLane="best" from="280680877#2" to="-280676564"/>
    <trip id="truck204" type="truck_truck" depart="2203.48" departLane="best" from="280680846#0" to="280676558#2"/>
    <trip id="truck205" type="truck_truck" depart="2214.28" departLane="best" from="280680648#5" to="874502239#1"/>
    <trip id="truck206" type="truck_truck" depart="2225.08" departLane="best" from="280676563#9" to="280680826#0"/>
    <trip id="truck207" type="truck_truck" depart="2235.88" departLane="best" from="280680865#0" to="280676660#7"/>
    <trip id="truck208" type="truck_truck" depart="2246.68" departLane="best" from="-280680749#1" to="-280676785#3"/>
    <trip id="truck209" type="truck_truck" depart="2257.48" departLane="best" from="-280676683#1" to="280472265"/>
    <trip id="truck210" type="truck_truck" depart="2268.29" departLane="best" from="-280680795#1" to="280676563#10"/>
    <trip id="truck211" type="truck_truck" depart="2279.09" departLane="best" from="-280676811" to="-280680757"/>
    <trip id="truck212" type="truck_truck" depart="2289.89" departLane="best" from="-874502248#1" to="280680761"/>
    <trip id="truck213" type="truck_truck" depart="2300.69" departLane="best" from="-874502237" to="280680784"/>
    <trip id="truck214" type="truck_truck" depart="2311.49" departLane="best" from="280680637#5" to="135955892#7"/>
    <trip id="truck215" type="truck_truck" depart="2322.29" departLane="best" from="280676795#3" to="-280475168#0"/>
    <trip id="truck216" type="truck_truck" depart="2333.09" departLane="best" from="280680894#2" to="280680671#1"/>
    <trip id="truck217" type="truck_truck" depart="2343.90" departLane="best" from="280676621#1" to="280472292"/>
    <trip id="truck218" type="truck_truck" depart="2354.70" departLane="best" from="-376558271#0" to="-280680825#1"/>
    <trip id="truck219" type="truck_truck" depart="2365.50" departLane="best" from="-280676734#0" to="-241720911#9"/>
    <trip id="truck220" type="truck_truck" depart="2376.30" departLane="best" from="-376558271#0" to="280680886#2"/>
    <trip id="truck221" type="truck_truck" depart="2387.10" departLane="best" from="-280676664#0" to="-280680637#5"/>
    <trip id="truck223" type="truck_truck" depart="2408.70" departLane="best" from="280472262#2" to="-991891012"/>
    <trip id="truck224" type="truck_truck" depart="2419.50" departLane="best" departSpeed="max" from="376558267#0" to="874599898"/>
    <trip id="truck225" type="truck_truck" depart="2430.31" departLane="best" from="-280680846#0" to="135955892#14"/>
    <trip id="truck226" type="truck_truck" depart="2441.11" departLane="best" from="-280676611" to="376558270#0"/>
    <trip id="truck227" type="truck_truck" depart="2451.91" departLane="best" from="241720911#9" to="-280676757#0"/>
    <trip id="truck228" type="truck_truck" depart="2462.71" departLane="best" from="-874502245" to="280472285#4"/>
    <trip id="truck229" type="truck_truck" depart="2473.51" departLane="best" from="280676694#0" to="280680917#0"/>
    <trip id="truck230" type="truck_truck" depart="2484.31" departLane="best" from="-280680784" to="-869030128"/>
    <trip id="truck231" type="truck_truck" depart="2495.11" departLane="best" from="-280680868#1" to="280676570"/>
    <trip id="truck232" type="truck_truck" depart="2505.92" departLane="best" from="-280680917#3" to="280680803#1"/>
    <trip id="truck233" type="truck_truck" depart="2516.72" departLane="best" from="280680846#2" to="-280676795#0"/>
    <trip id="truck234" type="truck_truck" depart="2527.52" departLane="best" from="-280680638#2" to="-280472299#0"/>
    <trip id="truck235" type="truck_truck" depart="2538.32" departLane="best" from="-280680898#1" to="-280680901#0"/>
    <trip id="truck236" type="truck_truck" depart="2549.12" departLane="best" from="280676785#3" to="-280680646#2"/>
    <trip id="truck237" type="truck_truck" depart="2559.92" departLane="best" from="280680837#1" to="-280676716#1"/>
    <trip id="truck238" type="truck_truck" depart="2570.72" departLane="best" from="280680637#1" to="280680655#1"/>
    <trip id="truck239" type="truck_truck" depart="2581.53" departLane="best" from="-874502248#3" to="-280680793#0"/>